@<TRIPOS>MOLECULE
CSD_code = ADABUF | q = 0 | S = 0 | Stoichiometry = C21H39ClCoNP2 | MND = 4
 65 67 0 0 0
SMALL
GASTEIGER

@<TRIPOS>ATOM
      1 CO          3.9815    4.8143    1.5469 Co.oh   1  UNL1        0.0000
      2 P           2.7826    4.4802    3.3471 P.3     1  UNL1        0.0000
      3 P           3.5319    3.3007    0.0121 P.3     1  UNL1        0.0000
      4 N           5.6413    3.3563    2.3294 N.4     1  UNL1        0.0000
      5 H           6.4510    3.9130    2.5922 H       1  UNL1        0.0000
      6 C           3.8910    4.2444    4.7964 C.ar    1  UNL1        0.0000
      7 C           3.7142    4.9648    5.9752 C.ar    1  UNL1        0.0000
      8 H           2.8820    5.6446    6.0741 H       1  UNL1        0.0000
      9 C           4.5898    4.8342    7.0379 C.ar    1  UNL1        0.0000
     10 H           4.4255    5.4006    7.9431 H       1  UNL1        0.0000
     11 C           5.6752    3.9840    6.9343 C.ar    1  UNL1        0.0000
     12 H           6.3702    3.8814    7.7543 H       1  UNL1        0.0000
     13 C           5.8652    3.2642    5.7683 C.ar    1  UNL1        0.0000
     14 H           6.7126    2.5969    5.6882 H       1  UNL1        0.0000
     15 C           4.9867    3.3760    4.6993 C.ar    1  UNL1        0.0000
     16 C           5.2333    2.5438    3.4699 C.3     1  UNL1        0.0000
     17 H           5.9922    1.7756    3.6991 H       1  UNL1        0.0000
     18 H           4.3069    2.0340    3.1960 H       1  UNL1        0.0000
     19 C           5.9862    2.5640    1.1541 C.3     1  UNL1        0.0000
     20 H           6.6778    1.7442    1.4178 H       1  UNL1        0.0000
     21 H           6.4879    3.2319    0.4523 H       1  UNL1        0.0000
     22 C           4.7506    1.9704    0.4711 C.3     1  UNL1        0.0000
     23 H           4.2461    1.2813    1.1517 H       1  UNL1        0.0000
     24 H           5.0623    1.4076   -0.4105 H       1  UNL1        0.0000
     25 C           1.2776    3.4691    3.8677 C.3     1  UNL1        0.0000
     26 H           0.6025    3.5142    3.0036 H       1  UNL1        0.0000
     27 C           0.5379    3.9785    5.0999 C.3     1  UNL1        0.0000
     28 H          -0.2979    3.3140    5.3180 H       1  UNL1        0.0000
     29 H           0.1343    4.9759    4.9481 H       1  UNL1        0.0000
     30 H           1.1937    3.9860    5.9679 H       1  UNL1        0.0000
     31 C           1.6829    2.0137    4.0854 C.3     1  UNL1        0.0000
     32 H           2.3689    1.9303    4.9276 H       1  UNL1        0.0000
     33 H           2.1665    1.6045    3.2006 H       1  UNL1        0.0000
     34 H           0.8046    1.4053    4.2989 H       1  UNL1        0.0000
     35 C           2.1979    6.2407    3.5577 C.3     1  UNL1        0.0000
     36 H           1.7037    6.4178    4.5180 H       1  UNL1        0.0000
     37 C           1.2257    6.5405    2.4195 C.3     1  UNL1        0.0000
     38 H           0.9135    7.5837    2.4466 H       1  UNL1        0.0000
     39 H           0.3362    5.9148    2.4776 H       1  UNL1        0.0000
     40 H           1.7231    6.3561    1.4629 H       1  UNL1        0.0000
     41 C           3.4327    7.1279    3.4315 C.3     1  UNL1        0.0000
     42 H           3.9751    6.8652    2.5120 H       1  UNL1        0.0000
     43 H           4.1101    6.9979    4.2747 H       1  UNL1        0.0000
     44 H           3.1542    8.1790    3.3674 H       1  UNL1        0.0000
     45 C           1.9581    2.2812    0.0913 C.3     1  UNL1        0.0000
     46 H           1.9629    1.9363    1.1332 H       1  UNL1        0.0000
     47 C           1.8958    1.0589   -0.8178 C.3     1  UNL1        0.0000
     48 H           1.0536    0.4318   -0.5266 H       1  UNL1        0.0000
     49 H           2.8020    0.4619   -0.7507 H       1  UNL1        0.0000
     50 H           1.7454    1.3494   -1.8547 H       1  UNL1        0.0000
     51 C           0.7251    3.1598   -0.0906 C.3     1  UNL1        0.0000
     52 H           0.5667    3.3952   -1.1402 H       1  UNL1        0.0000
     53 H           0.8482    4.0915    0.4600 H       1  UNL1        0.0000
     54 H          -0.1655    2.6499    0.2756 H       1  UNL1        0.0000
     55 C           3.8204    3.5269   -1.8218 C.3     1  UNL1        0.0000
     56 H           3.3917    2.6558   -2.3312 H       1  UNL1        0.0000
     57 C           3.0956    4.7975   -2.2580 C.3     1  UNL1        0.0000
     58 H           3.5292    5.6485   -1.7370 H       1  UNL1        0.0000
     59 H           2.0350    4.7549   -2.0226 H       1  UNL1        0.0000
     60 H           3.2066    4.9532   -3.3300 H       1  UNL1        0.0000
     61 C           5.2974    3.6373   -2.1847 C.3     1  UNL1        0.0000
     62 H           5.3927    3.8555   -3.2476 H       1  UNL1        0.0000
     63 H           5.8415    2.7178   -1.9817 H       1  UNL1        0.0000
     64 H           5.7521    4.4530   -1.6284 H       1  UNL1        0.0000
     65 CL          5.3026    5.9082    0.3437 Cl      1  UNL1        0.0000
@<TRIPOS>BOND
     1    60    57    1
     2    62    61    1
     3    56    55    1
     4    57    59    1
     5    57    55    1
     6    57    58    1
     7    61    63    1
     8    61    55    1
     9    61    64    1
    10    50    47    1
    11    55     3    1
    12    52    51    1
    13    47    49    1
    14    47    48    1
    15    47    45    1
    16    24    22    1
    17    51    45    1
    18    51    54    1
    19    51    53    1
    20     3    45    1
    21     3    22    1
    22     3     1    1
    23    45    46    1
    24    65     1    1
    25    21    19    1
    26    22    23    1
    27    22    19    1
    28    19    20    1
    29    19     4    1
    30    40    37    1
    31     1     4    1
    32     1     2    1
    33     4     5    1
    34     4    16    1
    35    37    38    1
    36    37    39    1
    37    37    35    1
    38    42    41    1
    39    26    25    1
    40    18    16    1
    41    33    31    1
    42     2    35    1
    43     2    25    1
    44     2     6    1
    45    44    41    1
    46    41    35    1
    47    41    43    1
    48    16    17    1
    49    16    15    1
    50    35    36    1
    51    25    31    1
    52    25    27    1
    53    31    34    1
    54    31    32    1
    55    15     6   ar
    56    15    13   ar
    57     6     7   ar
    58    29    27    1
    59    27    28    1
    60    27    30    1
    61    14    13    1
    62    13    11   ar
    63     7     8    1
    64     7     9   ar
    65    11     9   ar
    66    11    12    1
    67     9    10    1
