@<TRIPOS>MOLECULE
CSD_code = BITTIK | q = 0 | S = 0 | Stoichiometry = C31H50CoNOP2 | MND = 4
 86 92 0 0 0
SMALL
GASTEIGER

@<TRIPOS>ATOM
      1 CO          7.1700   12.8339    3.5359 Co.oh   1  UNL1        0.0000
      2 P           5.5203   12.5297    2.1440 P.3     1  UNL1        0.0000
      3 P           9.0814   12.8161    4.5836 P.3     1  UNL1        0.0000
      4 O           5.5872   14.0305    5.6224 O.3     1  UNL1        0.0000
      5 N           8.1703   12.1475    2.1403 N.ar    1  UNL1        0.0000
      6 C           4.1568   13.7484    1.8403 C.3     1  UNL1        0.0000
      7 H           3.5731   13.7873    2.7691 H       1  UNL1        0.0000
      8 C           6.2299   13.5327    4.7992 C.3     1  UNL1        0.0000
      9 C           4.6748   10.9118    2.4680 C.3     1  UNL1        0.0000
     10 H           4.1167   10.5988    1.5760 H       1  UNL1        0.0000
     11 C           9.3187   12.0105    6.2388 C.3     1  UNL1        0.0000
     12 H          10.3857   11.7884    6.3751 H       1  UNL1        0.0000
     13 C           6.3211   12.2557    0.5120 C.3     1  UNL1        0.0000
     14 H           5.8282   11.4587   -0.0548 H       1  UNL1        0.0000
     15 H           6.2761   13.1780   -0.0784 H       1  UNL1        0.0000
     16 C           8.5182   10.7064    6.1992 C.3     1  UNL1        0.0000
     17 H           7.4724   10.9551    5.9857 H       1  UNL1        0.0000
     18 H           8.8776   10.0667    5.3887 H       1  UNL1        0.0000
     19 C           3.2343   13.3882    0.6787 C.3     1  UNL1        0.0000
     20 H           2.7634   12.4184    0.8534 H       1  UNL1        0.0000
     21 H           3.8137   13.3212   -0.2448 H       1  UNL1        0.0000
     22 C           7.7350   11.9166    0.8638 C.ar    1  UNL1        0.0000
     23 C           9.4819   11.7642    2.1895 C.ar    1  UNL1        0.0000
     24 C           4.7878   15.1245    1.6258 C.3     1  UNL1        0.0000
     25 H           5.4348   15.3608    2.4769 H       1  UNL1        0.0000
     26 H           5.4119   15.1105    0.7286 H       1  UNL1        0.0000
     27 C           3.1669    9.6668    4.0573 C.3     1  UNL1        0.0000
     28 H           2.5659    9.2707    3.2345 H       1  UNL1        0.0000
     29 H           2.5126    9.7784    4.9246 H       1  UNL1        0.0000
     30 C           3.7301   11.0298    3.6629 C.3     1  UNL1        0.0000
     31 H           2.9049   11.7057    3.4282 H       1  UNL1        0.0000
     32 H           4.2846   11.4531    4.5058 H       1  UNL1        0.0000
     33 C           8.8193   12.8896    7.3828 C.3     1  UNL1        0.0000
     34 H           9.4106   13.8051    7.4473 H       1  UNL1        0.0000
     35 H           7.7821   13.1720    7.1867 H       1  UNL1        0.0000
     36 C           8.6036    9.9626    7.5273 C.3     1  UNL1        0.0000
     37 H           8.0144    9.0445    7.4765 H       1  UNL1        0.0000
     38 H           9.6420    9.6829    7.7228 H       1  UNL1        0.0000
     39 C           2.7854   15.8313    0.3010 C.3     1  UNL1        0.0000
     40 H           3.3626   15.8221   -0.6266 H       1  UNL1        0.0000
     41 H           2.0029   16.5860    0.1998 H       1  UNL1        0.0000
     42 C           2.1558   14.4584    0.5181 C.3     1  UNL1        0.0000
     43 H           1.5100   14.2070   -0.3261 H       1  UNL1        0.0000
     44 H           1.5356   14.4840    1.4174 H       1  UNL1        0.0000
     45 C           5.7825    9.8997    2.7667 C.3     1  UNL1        0.0000
     46 H           6.4333    9.7896    1.8963 H       1  UNL1        0.0000
     47 H           6.3955   10.2970    3.5890 H       1  UNL1        0.0000
     48 C           3.7056   16.1872    1.4656 C.3     1  UNL1        0.0000
     49 H           3.1197   16.2494    2.3855 H       1  UNL1        0.0000
     50 H           4.1644   17.1630    1.2940 H       1  UNL1        0.0000
     51 C           4.2939    8.6899    4.3740 C.3     1  UNL1        0.0000
     52 H           4.8704    9.0650    5.2226 H       1  UNL1        0.0000
     53 H           3.8795    7.7185    4.6514 H       1  UNL1        0.0000
     54 C           5.2114    8.5441    3.1649 C.3     1  UNL1        0.0000
     55 H           4.6448    8.1264    2.3285 H       1  UNL1        0.0000
     56 H           6.0266    7.8544    3.3927 H       1  UNL1        0.0000
     57 C           8.9008   12.1437    8.7133 C.3     1  UNL1        0.0000
     58 H           9.9459   11.9104    8.9337 H       1  UNL1        0.0000
     59 H           8.5254   12.7833    9.5149 H       1  UNL1        0.0000
     60 C           8.7573   11.3951    0.1090 C.ar    1  UNL1        0.0000
     61 H           8.7123   11.1155   -0.9275 H       1  UNL1        0.0000
     62 C           8.0956   10.8497    8.6592 C.3     1  UNL1        0.0000
     63 H           7.0431   11.0865    8.4884 H       1  UNL1        0.0000
     64 H           8.1716   10.3225    9.6124 H       1  UNL1        0.0000
     65 C          11.2791   14.5774    5.1754 C.3     1  UNL1        0.0000
     66 H          11.9185   14.0514    4.4636 H       1  UNL1        0.0000
     67 H          11.4041   14.1045    6.1521 H       1  UNL1        0.0000
     68 C           9.8789   11.2981    0.9597 C.ar    1  UNL1        0.0000
     69 H          10.8534   10.9303    0.6960 H       1  UNL1        0.0000
     70 C          10.2221   11.8777    3.4837 C.3     1  UNL1        0.0000
     71 H          11.1827   12.3865    3.3612 H       1  UNL1        0.0000
     72 H          10.4193   10.8908    3.9183 H       1  UNL1        0.0000
     73 C           9.6401   15.1872    3.3679 C.3     1  UNL1        0.0000
     74 H           8.5820   15.1270    3.0767 H       1  UNL1        0.0000
     75 H          10.2210   14.6552    2.6103 H       1  UNL1        0.0000
     76 C           9.8221   14.5072    4.7258 C.3     1  UNL1        0.0000
     77 H           9.1960   15.0354    5.4578 H       1  UNL1        0.0000
     78 C          10.0955   16.6406    3.4345 C.3     1  UNL1        0.0000
     79 H           9.4653   17.1865    4.1408 H       1  UNL1        0.0000
     80 H           9.9868   17.1111    2.4554 H       1  UNL1        0.0000
     81 C          11.5503   16.7175    3.8908 C.3     1  UNL1        0.0000
     82 H          12.1863   16.2215    3.1538 H       1  UNL1        0.0000
     83 H          11.8662   17.7607    3.9563 H       1  UNL1        0.0000
     84 C          11.7237   16.0378    5.2463 C.3     1  UNL1        0.0000
     85 H          11.1250   16.5635    5.9942 H       1  UNL1        0.0000
     86 H          12.7692   16.0900    5.5583 H       1  UNL1        0.0000
@<TRIPOS>BOND
     1    61    60    1
     2    40    39    1
     3    43    42    1
     4    21    19    1
     5    15    13    1
     6    14    13    1
     7    60    22   ar
     8    60    68   ar
     9    41    39    1
    10    39    42    1
    11    39    48    1
    12    13    22    1
    13    13     2    1
    14    42    19    1
    15    42    44    1
    16    19    20    1
    17    19     6    1
    18    69    68    1
    19    26    24    1
    20    22     5   ar
    21    68    23   ar
    22    50    48    1
    23    48    24    1
    24    48    49    1
    25    10     9    1
    26    24     6    1
    27    24    25    1
    28     6     2    1
    29     6     7    1
    30    46    45    1
    31     5    23   ar
    32     5     1    1
    33     2     9    1
    34     2     1    1
    35    23    70    1
    36    55    54    1
    37    80    78    1
    38     9    45    1
    39     9    30    1
    40    75    73    1
    41    45    54    1
    42    45    47    1
    43    74    73    1
    44    82    81    1
    45    54    56    1
    46    54    51    1
    47    28    27    1
    48    71    70    1
    49    73    78    1
    50    73    76    1
    51    31    30    1
    52    78    81    1
    53    78    79    1
    54    70    72    1
    55    70     3    1
    56     1     3    1
    57     1     8    1
    58    30    27    1
    59    30    32    1
    60    81    83    1
    61    81    84    1
    62    27    51    1
    63    27    29    1
    64    51    53    1
    65    51    52    1
    66    66    65    1
    67     3    76    1
    68     3    11    1
    69    76    65    1
    70    76    77    1
    71     8     4    1
    72    65    84    1
    73    65    67    1
    74    84    86    1
    75    84    85    1
    76    18    16    1
    77    17    16    1
    78    16    11    1
    79    16    36    1
    80    11    12    1
    81    11    33    1
    82    35    33    1
    83    33    34    1
    84    33    57    1
    85    37    36    1
    86    36    38    1
    87    36    62    1
    88    63    62    1
    89    62    57    1
    90    62    64    1
    91    57    58    1
    92    57    59    1
