@<TRIPOS>MOLECULE
CSD_code = EGAVEQ | q = 0 | S = 0 | Stoichiometry = C30H44CoNOP2 | MND = 4
 79 83 0 0 0
SMALL
GASTEIGER

@<TRIPOS>ATOM
      1 CO          5.9965    2.6521    8.6012 Co.oh   1  UNL1        0.0000
      2 P           4.9854    2.3293    6.7121 P.3     1  UNL1        0.0000
      3 P           6.8724    3.2716   10.4836 P.3     1  UNL1        0.0000
      4 N           5.1429    4.3744    8.5979 N.pl3   1  UNL1        0.0000
      5 C           6.1883    7.1643   11.5676 C.ar    1  UNL1        0.0000
      6 C           4.8508    6.6005    9.6035 C.ar    1  UNL1        0.0000
      7 C           3.9511    3.7931    6.6053 C.ar    1  UNL1        0.0000
      8 C           5.4149    5.3104    9.5633 C.ar    1  UNL1        0.0000
      9 C           2.9946    4.0293    5.6316 C.ar    1  UNL1        0.0000
     10 H           2.7851    3.2782    4.8830 H       1  UNL1        0.0000
     11 C           6.3306    4.9803   10.5857 C.ar    1  UNL1        0.0000
     12 C           3.5445    5.9487    7.5887 C.ar    1  UNL1        0.0000
     13 C           4.2346    4.7216    7.6301 C.ar    1  UNL1        0.0000
     14 C           2.6048    6.1629    6.5966 C.ar    1  UNL1        0.0000
     15 H           2.0708    7.1023    6.5720 H       1  UNL1        0.0000
     16 C           3.8632    0.9150    6.2832 C.3     1  UNL1        0.0000
     17 H           3.3083    1.1743    5.3740 H       1  UNL1        0.0000
     18 C           6.7221    5.8889   11.5554 C.ar    1  UNL1        0.0000
     19 H           7.4521    5.6060   12.3008 H       1  UNL1        0.0000
     20 C           5.2479    7.4815   10.5929 C.ar    1  UNL1        0.0000
     21 H           4.8184    8.4730   10.6182 H       1  UNL1        0.0000
     22 C           3.8113    7.0454    8.5972 C.3     1  UNL1        0.0000
     23 C           2.2970    5.2232    5.6186 C.ar    1  UNL1        0.0000
     24 C           2.5065    7.3754    9.3452 C.3     1  UNL1        0.0000
     25 H           2.1349    6.4848    9.8495 H       1  UNL1        0.0000
     26 H           1.7408    7.7252    8.6579 H       1  UNL1        0.0000
     27 H           2.6727    8.1480   10.0915 H       1  UNL1        0.0000
     28 C           6.5911    8.1802   12.5952 C.3     1  UNL1        0.0000
     29 H           7.0411    9.0503   12.1168 H       1  UNL1        0.0000
     30 H           7.3113    7.7603   13.2937 H       1  UNL1        0.0000
     31 H           5.7224    8.5225   13.1576 H       1  UNL1        0.0000
     32 C           6.7530    1.1073    8.6097 C.3     1  UNL1        0.0000
     33 C           1.2387    5.5065    4.5939 C.3     1  UNL1        0.0000
     34 H           1.3721    6.4990    4.1655 H       1  UNL1        0.0000
     35 H           0.2485    5.4710    5.0504 H       1  UNL1        0.0000
     36 H           1.2702    4.7732    3.7910 H       1  UNL1        0.0000
     37 C           6.1870    2.4791    5.2971 C.3     1  UNL1        0.0000
     38 H           6.7852    1.5591    5.3194 H       1  UNL1        0.0000
     39 C           7.0919    3.6609    5.6394 C.3     1  UNL1        0.0000
     40 H           7.9351    3.7220    4.9531 H       1  UNL1        0.0000
     41 H           7.4739    3.5531    6.6613 H       1  UNL1        0.0000
     42 H           6.5297    4.5924    5.5840 H       1  UNL1        0.0000
     43 C           4.3265    8.2904    7.8519 C.3     1  UNL1        0.0000
     44 H           4.5025    9.1124    8.5406 H       1  UNL1        0.0000
     45 H           3.6084    8.6201    7.1056 H       1  UNL1        0.0000
     46 H           5.2632    8.0575    7.3481 H       1  UNL1        0.0000
     47 C           8.6804    3.3127   10.8995 C.3     1  UNL1        0.0000
     48 H           8.8159    3.9138   11.8062 H       1  UNL1        0.0000
     49 C           2.8871    0.7737    7.4480 C.3     1  UNL1        0.0000
     50 H           2.1691   -0.0233    7.2614 H       1  UNL1        0.0000
     51 H           2.3427    1.7048    7.6029 H       1  UNL1        0.0000
     52 H           3.4355    0.5408    8.3614 H       1  UNL1        0.0000
     53 C           4.6420   -0.3748    6.0546 C.3     1  UNL1        0.0000
     54 H           5.2601   -0.6034    6.9200 H       1  UNL1        0.0000
     55 H           5.2854   -0.3002    5.1805 H       1  UNL1        0.0000
     56 H           3.9534   -1.2045    5.8997 H       1  UNL1        0.0000
     57 C           5.5526    2.6452    3.9225 C.3     1  UNL1        0.0000
     58 H           4.9632    3.5590    3.8850 H       1  UNL1        0.0000
     59 H           4.9115    1.8020    3.6738 H       1  UNL1        0.0000
     60 H           6.3317    2.7124    3.1638 H       1  UNL1        0.0000
     61 C           6.0365    2.4124   11.9087 C.3     1  UNL1        0.0000
     62 H           6.4078    1.3796   11.8895 H       1  UNL1        0.0000
     63 C           4.5458    2.4039   11.5761 C.3     1  UNL1        0.0000
     64 H           3.9916    1.7755   12.2715 H       1  UNL1        0.0000
     65 H           4.3938    2.0258   10.5584 H       1  UNL1        0.0000
     66 H           4.1447    3.4155   11.6255 H       1  UNL1        0.0000
     67 C           9.2384    1.9130   11.1271 C.3     1  UNL1        0.0000
     68 H           9.0387    1.2803   10.2650 H       1  UNL1        0.0000
     69 H           8.7974    1.4480   12.0063 H       1  UNL1        0.0000
     70 H          10.3170    1.9595   11.2723 H       1  UNL1        0.0000
     71 C           9.3745    4.0015    9.7276 C.3     1  UNL1        0.0000
     72 H          10.4448    4.0920    9.9060 H       1  UNL1        0.0000
     73 H           8.9609    4.9976    9.5729 H       1  UNL1        0.0000
     74 H           9.2217    3.4211    8.8170 H       1  UNL1        0.0000
     75 C           6.2965    3.0253   13.2785 C.3     1  UNL1        0.0000
     76 H           5.9236    4.0468   13.3136 H       1  UNL1        0.0000
     77 H           7.3575    3.0291   13.5197 H       1  UNL1        0.0000
     78 H           5.7783    2.4484   14.0438 H       1  UNL1        0.0000
     79 O           7.2555    0.0651    8.6202 O.3     1  UNL1        0.0000
@<TRIPOS>BOND
     1    60    57    1
     2    59    57    1
     3    36    33    1
     4    58    57    1
     5    57    37    1
     6    34    33    1
     7    33    35    1
     8    33    23    1
     9    10     9    1
    10    40    39    1
    11    55    53    1
    12    37    38    1
    13    37    39    1
    14    37     2    1
    15    17    16    1
    16    42    39    1
    17    23     9   ar
    18    23    14   ar
    19     9     7   ar
    20    39    41    1
    21    56    53    1
    22    53    16    1
    23    53    54    1
    24    16     2    1
    25    16    49    1
    26    15    14    1
    27    14    12   ar
    28     7     2    1
    29     7    13   ar
    30     2     1    1
    31    45    43    1
    32    50    49    1
    33    46    43    1
    34    49    51    1
    35    49    52    1
    36    12    13   ar
    37    12    22    1
    38    13     4    1
    39    43    44    1
    40    43    22    1
    41    22    24    1
    42    22     6    1
    43     4     1    1
    44     4     8    1
    45     1    32    1
    46     1     3    1
    47    32    79    1
    48    26    24    1
    49    74    71    1
    50    24    25    1
    51    24    27    1
    52     8     6   ar
    53     8    11   ar
    54    73    71    1
    55     6    20   ar
    56    71    72    1
    57    71    47    1
    58    68    67    1
    59     3    11    1
    60     3    47    1
    61     3    61    1
    62    65    63    1
    63    11    18   ar
    64    20    21    1
    65    20     5   ar
    66    47    67    1
    67    47    48    1
    68    67    70    1
    69    67    69    1
    70    18     5   ar
    71    18    19    1
    72     5    28    1
    73    63    66    1
    74    63    61    1
    75    63    64    1
    76    62    61    1
    77    61    75    1
    78    29    28    1
    79    28    31    1
    80    28    30    1
    81    75    76    1
    82    75    77    1
    83    75    78    1
