@<TRIPOS>MOLECULE
CSD_code = GIRXEM | q = 0 | S = 0 | Stoichiometry = C16H39ClCoNP2 | MND = 6
 60 61 0 0 0
SMALL
GASTEIGER

@<TRIPOS>ATOM
      1 CO         10.8594   10.8051    0.8716 Co.oh   1  UNL1        0.0000
      2 P          12.7526   10.7667    1.9692 P.3     1  UNL1        0.0000
      3 CL         10.4718    8.6973    1.6281 Cl      1  UNL1        0.0000
      4 P           9.1356   10.5666   -0.4561 P.3     1  UNL1        0.0000
      5 N          11.9239    9.8249   -0.6354 N.4     1  UNL1        0.0000
      6 H          11.7363    8.8804   -0.2781 H       1  UNL1        0.0000
      7 C          11.3448    9.9124   -1.9702 C.3     1  UNL1        0.0000
      8 H          11.8371    9.2064   -2.6600 H       1  UNL1        0.0000
      9 H          11.5110   10.9255   -2.3483 H       1  UNL1        0.0000
     10 C           9.8531    9.6097   -1.8833 C.3     1  UNL1        0.0000
     11 H           9.7111    8.5482   -1.6577 H       1  UNL1        0.0000
     12 H           9.3466    9.8405   -2.8225 H       1  UNL1        0.0000
     13 C          13.8719    9.8308    0.8124 C.3     1  UNL1        0.0000
     14 H          14.9128   10.1450    0.9108 H       1  UNL1        0.0000
     15 H          13.7959    8.7732    1.0837 H       1  UNL1        0.0000
     16 C           8.3376   12.0205   -1.3157 C.3     1  UNL1        0.0000
     17 H           7.5416   11.6352   -1.9630 H       1  UNL1        0.0000
     18 C           7.7192    9.4382    0.0021 C.3     1  UNL1        0.0000
     19 H           8.2240    8.4711    0.1268 H       1  UNL1        0.0000
     20 C          13.3678   10.0238   -0.6134 C.3     1  UNL1        0.0000
     21 H          13.5776   11.0394   -0.9619 H       1  UNL1        0.0000
     22 H          13.8728    9.3187   -1.2948 H       1  UNL1        0.0000
     23 C          12.9509    9.7294    3.5101 C.3     1  UNL1        0.0000
     24 H          12.7200    8.7210    3.1420 H       1  UNL1        0.0000
     25 C          11.9021   10.0724    4.5627 C.3     1  UNL1        0.0000
     26 H          11.8631    9.2878    5.3168 H       1  UNL1        0.0000
     27 H          10.9223   10.1508    4.0967 H       1  UNL1        0.0000
     28 H          12.1241   11.0124    5.0619 H       1  UNL1        0.0000
     29 C          13.7347   12.3205    2.3018 C.3     1  UNL1        0.0000
     30 H          14.6587   12.0329    2.8161 H       1  UNL1        0.0000
     31 C           6.6429    9.2994   -1.0688 C.3     1  UNL1        0.0000
     32 H           5.9870    8.4688   -0.8113 H       1  UNL1        0.0000
     33 H           7.0724    9.0983   -2.0486 H       1  UNL1        0.0000
     34 H           6.0314   10.1973   -1.1287 H       1  UNL1        0.0000
     35 C          12.9055   13.2436    3.1876 C.3     1  UNL1        0.0000
     36 H          13.4049   14.2034    3.3142 H       1  UNL1        0.0000
     37 H          12.7459   12.8104    4.1710 H       1  UNL1        0.0000
     38 H          11.9337   13.4102    2.7258 H       1  UNL1        0.0000
     39 C          14.3560    9.7300    4.1021 C.3     1  UNL1        0.0000
     40 H          14.5716   10.6736    4.5990 H       1  UNL1        0.0000
     41 H          15.1141    9.5495    3.3421 H       1  UNL1        0.0000
     42 H          14.4304    8.9390    4.8472 H       1  UNL1        0.0000
     43 C           7.1168    9.8058    1.3540 C.3     1  UNL1        0.0000
     44 H           6.4982   10.6977    1.2909 H       1  UNL1        0.0000
     45 H           7.9103    9.9853    2.0760 H       1  UNL1        0.0000
     46 H           6.4976    8.9878    1.7192 H       1  UNL1        0.0000
     47 C          14.0954   13.0348    1.0042 C.3     1  UNL1        0.0000
     48 H          13.1962   13.2129    0.4178 H       1  UNL1        0.0000
     49 H          14.8024   12.4602    0.4094 H       1  UNL1        0.0000
     50 H          14.5522   13.9981    1.2276 H       1  UNL1        0.0000
     51 C           9.3468   12.7759   -2.1729 C.3     1  UNL1        0.0000
     52 H           8.8932   13.6869   -2.5611 H       1  UNL1        0.0000
     53 H           9.6815   12.1823   -3.0209 H       1  UNL1        0.0000
     54 H          10.2084   13.0552   -1.5697 H       1  UNL1        0.0000
     55 C           7.7528   12.9535   -0.2612 C.3     1  UNL1        0.0000
     56 H           8.5260   13.2134    0.4600 H       1  UNL1        0.0000
     57 H           6.9322   12.4824    0.2729 H       1  UNL1        0.0000
     58 H           7.3798   13.8669   -0.7227 H       1  UNL1        0.0000
     59 H          10.1205   11.4429    1.9218 H       1  UNL1        0.0000
     60 H          11.1481   12.0968    0.3325 H       1  UNL1        0.0000
@<TRIPOS>BOND
     1    53    51    1
     2    12    10    1
     3     8     7    1
     4    52    51    1
     5     9     7    1
     6    51    54    1
     7    51    16    1
     8    33    31    1
     9     7    10    1
    10     7     5    1
    11    17    16    1
    12    10    11    1
    13    10     4    1
    14    16     4    1
    15    16    55    1
    16    22    20    1
    17    34    31    1
    18    31    32    1
    19    31    18    1
    20    21    20    1
    21    58    55    1
    22     5    20    1
    23     5     6    1
    24     5     1    1
    25    20    13    1
    26     4    18    1
    27     4     1    1
    28    55    57    1
    29    55    56    1
    30    18    19    1
    31    18    43    1
    32    60     1    1
    33    49    47    1
    34    48    47    1
    35    13    14    1
    36    13    15    1
    37    13     2    1
    38     1     3    1
    39     1    59    1
    40     1     2    1
    41    47    50    1
    42    47    29    1
    43    44    43    1
    44    43    46    1
    45    43    45    1
    46     2    29    1
    47     2    23    1
    48    29    30    1
    49    29    35    1
    50    38    35    1
    51    24    23    1
    52    35    36    1
    53    35    37    1
    54    41    39    1
    55    23    39    1
    56    23    25    1
    57    27    25    1
    58    39    40    1
    59    39    42    1
    60    25    28    1
    61    25    26    1
