@<TRIPOS>MOLECULE
CSD_code = IYUFUF | q = 0 | S = 0 | Stoichiometry = C30H50CoN3P2 | MND = 4
 86 92 0 0 0
SMALL
GASTEIGER

@<TRIPOS>ATOM
      1 CO          2.0608    3.7607    4.4574 Co.oh   1  UNL1        0.0000
      2 P           3.9850    3.7527    3.4024 P.3     1  UNL1        0.0000
      3 P           0.3820    3.4124    5.8286 P.3     1  UNL1        0.0000
      4 N           3.0489    3.0511    5.8432 N.ar    1  UNL1        0.0000
      5 N           1.1946    4.4272    3.2576 N.3     1  UNL1        0.0000
      6 N           0.5948    4.9086    2.4342 N.3     1  UNL1        0.0000
      7 C           4.3619    2.6719    5.7976 C.ar    1  UNL1        0.0000
      8 C           4.7449    2.1670    7.0165 C.ar    1  UNL1        0.0000
      9 C           3.6134    2.2351    7.8563 C.ar    1  UNL1        0.0000
     10 C           2.5992    2.7795    7.1068 C.ar    1  UNL1        0.0000
     11 C           5.1238    2.8330    4.5201 C.3     1  UNL1        0.0000
     12 C           4.7383    5.4339    3.2090 C.3     1  UNL1        0.0000
     13 C           4.5889    6.1486    4.5533 C.3     1  UNL1        0.0000
     14 C           5.0626    7.5936    4.4446 C.3     1  UNL1        0.0000
     15 C           6.5099    7.6404    3.9613 C.3     1  UNL1        0.0000
     16 C           6.6507    6.9263    2.6198 C.3     1  UNL1        0.0000
     17 C           6.1876    5.4744    2.7320 C.3     1  UNL1        0.0000
     18 C           4.2061    2.9033    1.7667 C.3     1  UNL1        0.0000
     19 C           3.6951    3.7511    0.6036 C.3     1  UNL1        0.0000
     20 C           3.7779    2.9702   -0.7064 C.3     1  UNL1        0.0000
     21 C           2.9784    1.6746   -0.6160 C.3     1  UNL1        0.0000
     22 C           3.4902    0.8199    0.5389 C.3     1  UNL1        0.0000
     23 C           3.4070    1.6001    1.8460 C.3     1  UNL1        0.0000
     24 C           1.1817    3.1095    7.4556 C.3     1  UNL1        0.0000
     25 C          -0.9916    4.6158    6.1523 C.3     1  UNL1        0.0000
     26 C          -1.9166    4.2222    7.3008 C.3     1  UNL1        0.0000
     27 C          -3.0031    5.2808    7.4825 C.3     1  UNL1        0.0000
     28 C          -2.3832    6.6518    7.7362 C.3     1  UNL1        0.0000
     29 C          -1.4616    7.0424    6.5840 C.3     1  UNL1        0.0000
     30 C          -0.3715    5.9916    6.4002 C.3     1  UNL1        0.0000
     31 C          -0.4556    1.7960    5.4738 C.3     1  UNL1        0.0000
     32 C          -1.3923    1.9295    4.2737 C.3     1  UNL1        0.0000
     33 C          -1.9570    0.5719    3.8636 C.3     1  UNL1        0.0000
     34 C          -0.8306   -0.4046    3.5434 C.3     1  UNL1        0.0000
     35 C           0.0805   -0.5646    4.7556 C.3     1  UNL1        0.0000
     36 C           0.6526    0.7857    5.1707 C.3     1  UNL1        0.0000
     37 H           5.7169    1.7923    7.2795 H       1  UNL1        0.0000
     38 H           3.5565    1.9225    8.8827 H       1  UNL1        0.0000
     39 H           5.3697    1.8612    4.0766 H       1  UNL1        0.0000
     40 H           6.0615    3.3747    4.6756 H       1  UNL1        0.0000
     41 H           4.1055    5.9521    2.4755 H       1  UNL1        0.0000
     42 H           3.5363    6.1125    4.8651 H       1  UNL1        0.0000
     43 H           5.1753    5.6274    5.3144 H       1  UNL1        0.0000
     44 H           4.4269    8.1316    3.7371 H       1  UNL1        0.0000
     45 H           4.9776    8.0876    5.4145 H       1  UNL1        0.0000
     46 H           6.8370    8.6777    3.8646 H       1  UNL1        0.0000
     47 H           7.1532    7.1547    4.6989 H       1  UNL1        0.0000
     48 H           6.0462    7.4424    1.8698 H       1  UNL1        0.0000
     49 H           7.6913    6.9565    2.2890 H       1  UNL1        0.0000
     50 H           6.8326    4.9538    3.4430 H       1  UNL1        0.0000
     51 H           6.2879    4.9794    1.7636 H       1  UNL1        0.0000
     52 H           5.2718    2.6775    1.6259 H       1  UNL1        0.0000
     53 H           2.6564    4.0325    0.7945 H       1  UNL1        0.0000
     54 H           4.2802    4.6683    0.5128 H       1  UNL1        0.0000
     55 H           3.3977    3.5861   -1.5238 H       1  UNL1        0.0000
     56 H           4.8236    2.7357   -0.9225 H       1  UNL1        0.0000
     57 H           1.9252    1.9122   -0.4512 H       1  UNL1        0.0000
     58 H           3.0561    1.1218   -1.5543 H       1  UNL1        0.0000
     59 H           2.9016   -0.0967    0.6169 H       1  UNL1        0.0000
     60 H           4.5283    0.5353    0.3493 H       1  UNL1        0.0000
     61 H           3.7683    0.9839    2.6739 H       1  UNL1        0.0000
     62 H           2.3605    1.8524    2.0518 H       1  UNL1        0.0000
     63 H           1.1330    4.0212    8.0622 H       1  UNL1        0.0000
     64 H           0.6889    2.3021    8.0074 H       1  UNL1        0.0000
     65 H          -1.5709    4.6718    5.2214 H       1  UNL1        0.0000
     66 H          -2.3809    3.2541    7.1009 H       1  UNL1        0.0000
     67 H          -1.3407    4.1367    8.2250 H       1  UNL1        0.0000
     68 H          -3.6191    5.3246    6.5810 H       1  UNL1        0.0000
     69 H          -3.6509    5.0041    8.3172 H       1  UNL1        0.0000
     70 H          -3.1708    7.3988    7.8532 H       1  UNL1        0.0000
     71 H          -1.8092    6.6232    8.6655 H       1  UNL1        0.0000
     72 H          -2.0447    7.1240    5.6639 H       1  UNL1        0.0000
     73 H          -1.0093    8.0163    6.7816 H       1  UNL1        0.0000
     74 H           0.2524    5.9616    7.2973 H       1  UNL1        0.0000
     75 H           0.2727    6.2555    5.5552 H       1  UNL1        0.0000
     76 H          -1.0200    1.4706    6.3573 H       1  UNL1        0.0000
     77 H          -2.2168    2.6055    4.5102 H       1  UNL1        0.0000
     78 H          -0.8343    2.3595    3.4366 H       1  UNL1        0.0000
     79 H          -2.5628    0.1695    4.6798 H       1  UNL1        0.0000
     80 H          -2.6067    0.6935    2.9943 H       1  UNL1        0.0000
     81 H          -1.2457   -1.3724    3.2546 H       1  UNL1        0.0000
     82 H          -0.2493   -0.0228    2.7011 H       1  UNL1        0.0000
     83 H          -0.4912   -0.9892    5.5850 H       1  UNL1        0.0000
     84 H           0.8955   -1.2538    4.5252 H       1  UNL1        0.0000
     85 H           1.2711    1.1872    4.3556 H       1  UNL1        0.0000
     86 H           1.2992    0.6654    6.0430 H       1  UNL1        0.0000
@<TRIPOS>BOND
     1    58    21    1
     2    55    20    1
     3    56    20    1
     4    20    21    1
     5    20    19    1
     6    21    57    1
     7    21    22    1
     8    60    22    1
     9    54    19    1
    10    22    59    1
    11    22    23    1
    12    19    53    1
    13    19    18    1
    14    52    18    1
    15    51    17    1
    16    18    23    1
    17    18     2    1
    18    23    62    1
    19    23    61    1
    20    48    16    1
    21    49    16    1
    22     6     5    1
    23    41    12    1
    24    16    17    1
    25    16    15    1
    26    82    34    1
    27    17    12    1
    28    17    50    1
    29    80    33    1
    30    12     2    1
    31    12    13    1
    32    81    34    1
    33     5     1    1
    34     2     1    1
    35     2    11    1
    36    78    32    1
    37    34    33    1
    38    34    35    1
    39    44    14    1
    40    33    32    1
    41    33    79    1
    42    46    15    1
    43    15    14    1
    44    15    47    1
    45    39    11    1
    46    32    77    1
    47    32    31    1
    48    85    36    1
    49    14    13    1
    50    14    45    1
    51     1     3    1
    52     1     4    1
    53    11    40    1
    54    11     7    1
    55    84    35    1
    56    13    42    1
    57    13    43    1
    58    35    36    1
    59    35    83    1
    60    36    31    1
    61    36    86    1
    62    65    25    1
    63    31     3    1
    64    31    76    1
    65    75    30    1
    66    72    29    1
    67     7     4   ar
    68     7     8   ar
    69     3    25    1
    70     3    24    1
    71     4    10   ar
    72    25    30    1
    73    25    26    1
    74    30    29    1
    75    30    74    1
    76    68    27    1
    77    29    73    1
    78    29    28    1
    79     8    37    1
    80     8     9   ar
    81    66    26    1
    82    10    24    1
    83    10     9   ar
    84    26    27    1
    85    26    67    1
    86    24    64    1
    87    24    63    1
    88    27    28    1
    89    27    69    1
    90    28    70    1
    91    28    71    1
    92     9    38    1
