@<TRIPOS>MOLECULE
CSD_code = RECPUL | q = 0 | S = 0 | Stoichiometry = C22H52CoNP2Si2 | MND = 3
 80 81 0 0 0
SMALL
GASTEIGER

@<TRIPOS>ATOM
      1 CO         11.1021    5.5630   10.3988 Co.oh   1  UNL1        0.0000
      2 P          11.0341    3.4255   10.7867 P.3     1  UNL1        0.0000
      3 P          11.0823    7.6918    9.9604 P.3     1  UNL1        0.0000
      4 SI         13.7567    4.3266   11.6513 Si      1  UNL1        0.0000
      5 SI         13.2868    7.2876   11.9487 Si      1  UNL1        0.0000
      6 N          12.8104    5.7356   11.3881 N.3     1  UNL1        0.0000
      7 C          15.1761    4.1282   10.3780 C.3     1  UNL1        0.0000
      8 H          15.8862    4.9399   10.4824 H       1  UNL1        0.0000
      9 H          14.8076    4.1454    9.3574 H       1  UNL1        0.0000
     10 H          15.7179    3.1982   10.5216 H       1  UNL1        0.0000
     11 C          14.5316    4.2052   13.3921 C.3     1  UNL1        0.0000
     12 H          15.2467    5.0073   13.5273 H       1  UNL1        0.0000
     13 H          15.0595    3.2675   13.5321 H       1  UNL1        0.0000
     14 H          13.7896    4.2940   14.1775 H       1  UNL1        0.0000
     15 C          12.6198    2.7889   11.4157 C.3     1  UNL1        0.0000
     16 H          13.0661    2.1222   10.6840 H       1  UNL1        0.0000
     17 H          12.4800    2.2280   12.3357 H       1  UNL1        0.0000
     18 C           9.8334    3.1727   12.2227 C.3     1  UNL1        0.0000
     19 C           8.5408    3.9077   11.8623 C.3     1  UNL1        0.0000
     20 H           7.9243    4.0602   12.7478 H       1  UNL1        0.0000
     21 H           7.9498    3.3600   11.1329 H       1  UNL1        0.0000
     22 H           8.7878    4.8889   11.4428 H       1  UNL1        0.0000
     23 C          10.4929    3.9316   13.3791 C.3     1  UNL1        0.0000
     24 H           9.7730    4.1088   14.1776 H       1  UNL1        0.0000
     25 H          10.8716    4.8927   13.0223 H       1  UNL1        0.0000
     26 H          11.3280    3.3757   13.7953 H       1  UNL1        0.0000
     27 C           9.5443    1.7331   12.6303 C.3     1  UNL1        0.0000
     28 H           9.0534    1.7167   13.6036 H       1  UNL1        0.0000
     29 H          10.4624    1.1538   12.7058 H       1  UNL1        0.0000
     30 H           8.8834    1.2452   11.9173 H       1  UNL1        0.0000
     31 C          10.6507    2.2897    9.3185 C.3     1  UNL1        0.0000
     32 C          11.7168    2.6859    8.2897 C.3     1  UNL1        0.0000
     33 H          11.4802    2.2703    7.3105 H       1  UNL1        0.0000
     34 H          12.7012    2.3274    8.5803 H       1  UNL1        0.0000
     35 H          11.7691    3.7733    8.2030 H       1  UNL1        0.0000
     36 C           9.2793    2.6608    8.7556 C.3     1  UNL1        0.0000
     37 H           9.1555    2.2563    7.7509 H       1  UNL1        0.0000
     38 H           9.1743    3.7463    8.7010 H       1  UNL1        0.0000
     39 H           8.4777    2.2637    9.3739 H       1  UNL1        0.0000
     40 C          10.7282    0.7905    9.5858 C.3     1  UNL1        0.0000
     41 H          10.7301    0.2499    8.6389 H       1  UNL1        0.0000
     42 H           9.8779    0.4435   10.1655 H       1  UNL1        0.0000
     43 H          11.6378    0.5311   10.1226 H       1  UNL1        0.0000
     44 C          12.8606    7.5815   13.7945 C.3     1  UNL1        0.0000
     45 H          13.4236    6.8991   14.4201 H       1  UNL1        0.0000
     46 H          11.8071    7.4164   13.9962 H       1  UNL1        0.0000
     47 H          13.1060    8.5918   14.1079 H       1  UNL1        0.0000
     48 C          15.1426    7.6770   11.7239 C.3     1  UNL1        0.0000
     49 H          15.7304    7.0069   12.3390 H       1  UNL1        0.0000
     50 H          15.3792    8.6922   12.0255 H       1  UNL1        0.0000
     51 H          15.4671    7.5467   10.6978 H       1  UNL1        0.0000
     52 C          12.2918    8.6113   10.9635 C.3     1  UNL1        0.0000
     53 H          11.7720    9.2596   11.6628 H       1  UNL1        0.0000
     54 H          12.9264    9.2350   10.3398 H       1  UNL1        0.0000
     55 C          11.7065    7.8866    8.1885 C.3     1  UNL1        0.0000
     56 C          10.8913    6.9276    7.3184 C.3     1  UNL1        0.0000
     57 H          11.3837    6.7632    6.3603 H       1  UNL1        0.0000
     58 H           9.8914    7.3051    7.1211 H       1  UNL1        0.0000
     59 H          10.8036    5.9625    7.8293 H       1  UNL1        0.0000
     60 C          11.6909    9.2949    7.6068 C.3     1  UNL1        0.0000
     61 H          12.2882    9.3243    6.6953 H       1  UNL1        0.0000
     62 H          12.1097   10.0142    8.3078 H       1  UNL1        0.0000
     63 H          10.6805    9.6063    7.3513 H       1  UNL1        0.0000
     64 C          13.1412    7.3521    8.2506 C.3     1  UNL1        0.0000
     65 H          13.5125    7.1421    7.2479 H       1  UNL1        0.0000
     66 H          13.1678    6.4320    8.8395 H       1  UNL1        0.0000
     67 H          13.8128    8.0680    8.7156 H       1  UNL1        0.0000
     68 C           9.4590    8.6248   10.2566 C.3     1  UNL1        0.0000
     69 C           9.5061   10.1379   10.0732 C.3     1  UNL1        0.0000
     70 H           8.6047   10.5851   10.4933 H       1  UNL1        0.0000
     71 H           9.5555   10.4122    9.0235 H       1  UNL1        0.0000
     72 H          10.3642   10.5714   10.5815 H       1  UNL1        0.0000
     73 C           8.3722    8.0144    9.3726 C.3     1  UNL1        0.0000
     74 H           7.3830    8.3073    9.7248 H       1  UNL1        0.0000
     75 H           8.4333    6.9245    9.3966 H       1  UNL1        0.0000
     76 H           8.4688    8.3467    8.3417 H       1  UNL1        0.0000
     77 C           9.1337    8.2932   11.7182 C.3     1  UNL1        0.0000
     78 H           8.1135    8.5882   11.9623 H       1  UNL1        0.0000
     79 H           9.8068    8.8066   12.4005 H       1  UNL1        0.0000
     80 H           9.2367    7.2200   11.8917 H       1  UNL1        0.0000
@<TRIPOS>BOND
     1    57    56    1
     2    61    60    1
     3    58    56    1
     4    65    64    1
     5    33    32    1
     6    56    59    1
     7    56    55    1
     8    63    60    1
     9    60    55    1
    10    60    62    1
    11    37    36    1
    12    55    64    1
    13    55     3    1
    14    35    32    1
    15    64    67    1
    16    64    66    1
    17    32    34    1
    18    32    31    1
    19    76    73    1
    20    41    40    1
    21    38    36    1
    22    36    31    1
    23    36    39    1
    24    71    69    1
    25    31    40    1
    26    31     2    1
    27     9     7    1
    28    73    75    1
    29    73    74    1
    30    73    68    1
    31    40    43    1
    32    40    42    1
    33     3    68    1
    34     3     1    1
    35     3    52    1
    36    69    68    1
    37    69    70    1
    38    69    72    1
    39    68    77    1
    40    54    52    1
    41     7     8    1
    42     7    10    1
    43     7     4    1
    44     1     2    1
    45     1     6    1
    46    16    15    1
    47    51    48    1
    48     2    15    1
    49     2    18    1
    50    52    53    1
    51    52     5    1
    52    21    19    1
    53     6     4    1
    54     6     5    1
    55    15     4    1
    56    15    17    1
    57    22    19    1
    58     4    11    1
    59    77    80    1
    60    77    78    1
    61    77    79    1
    62    48     5    1
    63    48    50    1
    64    48    49    1
    65    19    18    1
    66    19    20    1
    67    30    27    1
    68     5    44    1
    69    18    27    1
    70    18    23    1
    71    27    29    1
    72    27    28    1
    73    25    23    1
    74    23    26    1
    75    23    24    1
    76    11    12    1
    77    11    13    1
    78    11    14    1
    79    44    46    1
    80    44    47    1
    81    44    45    1
