@<TRIPOS>MOLECULE
CSD_code = YEGJOK | q = 0 | S = 0 | Stoichiometry = C28H40CoNO2P2 | MND = 5
 74 77 0 0 0
SMALL
GASTEIGER

@<TRIPOS>ATOM
      1 CO          7.7785    8.0307    3.2692 Co.oh   1  UNL1        0.0000
      2 P           5.6658    7.5982    2.8440 P.3     1  UNL1        0.0000
      3 C           5.4438    5.9814    3.6188 C.ar    1  UNL1        0.0000
      4 C           4.2466    5.4621    4.0839 C.ar    1  UNL1        0.0000
      5 C           4.1922    4.1876    4.6304 C.ar    1  UNL1        0.0000
      6 C           2.9004    3.6327    5.1548 C.3     1  UNL1        0.0000
      7 C           5.3755    3.4568    4.7154 C.ar    1  UNL1        0.0000
      8 C           6.5751    3.9559    4.2595 C.ar    1  UNL1        0.0000
      9 C           6.6464    5.2349    3.6817 C.ar    1  UNL1        0.0000
     10 N           7.7785    5.8531    3.2699 N.pl3   1  UNL1        0.0000
     11 C           5.2051    7.2731    1.0563 C.3     1  UNL1        0.0000
     12 C           6.0796    6.1447    0.5145 C.3     1  UNL1        0.0000
     13 C           3.7336    6.9136    0.8682 C.3     1  UNL1        0.0000
     14 C           4.2732    8.6734    3.4421 C.3     1  UNL1        0.0000
     15 C           4.3550   10.0260    2.7418 C.3     1  UNL1        0.0000
     16 C           4.3262    8.8402    4.9568 C.3     1  UNL1        0.0000
     17 C           8.0101    8.5754    1.6163 C.3     1  UNL1        0.0000
     18 O           8.0203    9.0351    0.5592 O.3     1  UNL1        0.0000
     19 H           3.3409    6.0516    4.0338 H       1  UNL1        0.0000
     20 H           2.0554    4.0026    4.5770 H       1  UNL1        0.0000
     21 H           2.7529    3.9314    6.1941 H       1  UNL1        0.0000
     22 H           2.9029    2.5456    5.1152 H       1  UNL1        0.0000
     23 H           5.3526    2.4726    5.1636 H       1  UNL1        0.0000
     24 H           7.4786    3.3762    4.3790 H       1  UNL1        0.0000
     25 H           5.4313    8.1945    0.5051 H       1  UNL1        0.0000
     26 H           5.8196    5.2039    0.9972 H       1  UNL1        0.0000
     27 H           7.1358    6.3364    0.6934 H       1  UNL1        0.0000
     28 H           5.9287    6.0355   -0.5586 H       1  UNL1        0.0000
     29 H           3.5735    6.5853   -0.1580 H       1  UNL1        0.0000
     30 H           3.4551    6.0948    1.5298 H       1  UNL1        0.0000
     31 H           3.0764    7.7606    1.0499 H       1  UNL1        0.0000
     32 H           3.3367    8.1714    3.1761 H       1  UNL1        0.0000
     33 H           3.6042   10.7064    3.1408 H       1  UNL1        0.0000
     34 H           4.1955    9.9307    1.6695 H       1  UNL1        0.0000
     35 H           5.3402   10.4654    2.9039 H       1  UNL1        0.0000
     36 H           5.1292    9.5164    5.2372 H       1  UNL1        0.0000
     37 H           3.3898    9.2614    5.3204 H       1  UNL1        0.0000
     38 H           4.4896    7.8830    5.4503 H       1  UNL1        0.0000
     39 P           9.8913    7.5985    3.6946 P.3     1  UNL1        0.0000
     40 C          10.1130    5.9816    2.9199 C.ar    1  UNL1        0.0000
     41 C          11.3100    5.4625    2.4542 C.ar    1  UNL1        0.0000
     42 C          11.3642    4.1880    1.9075 C.ar    1  UNL1        0.0000
     43 C          12.6558    3.6333    1.3824 C.3     1  UNL1        0.0000
     44 C          10.1810    3.4571    1.8231 C.ar    1  UNL1        0.0000
     45 C           8.9815    3.9560    2.2797 C.ar    1  UNL1        0.0000
     46 C           8.9105    5.2350    2.8576 C.ar    1  UNL1        0.0000
     47 C          10.3520    7.2738    5.4824 C.3     1  UNL1        0.0000
     48 C           9.4771    6.1461    6.0248 C.3     1  UNL1        0.0000
     49 C          11.8234    6.9136    5.6700 C.3     1  UNL1        0.0000
     50 C          11.2839    8.6735    3.0963 C.3     1  UNL1        0.0000
     51 C          11.2030   10.0259    3.7973 C.3     1  UNL1        0.0000
     52 C          11.2304    8.8412    1.5818 C.3     1  UNL1        0.0000
     53 C           7.5473    8.5767    4.9216 C.3     1  UNL1        0.0000
     54 O           7.5376    9.0378    5.9781 O.3     1  UNL1        0.0000
     55 H          12.2156    6.0520    2.5038 H       1  UNL1        0.0000
     56 H          13.5010    4.0028    1.9602 H       1  UNL1        0.0000
     57 H          12.8030    3.9326    0.3432 H       1  UNL1        0.0000
     58 H          12.6532    2.5462    1.4214 H       1  UNL1        0.0000
     59 H          10.2037    2.4730    1.3747 H       1  UNL1        0.0000
     60 H           8.0781    3.3762    2.1607 H       1  UNL1        0.0000
     61 H          10.1264    8.1955    6.0332 H       1  UNL1        0.0000
     62 H           9.7364    5.2050    5.5423 H       1  UNL1        0.0000
     63 H           8.4209    6.3384    5.8463 H       1  UNL1        0.0000
     64 H           9.6284    6.0371    7.0979 H       1  UNL1        0.0000
     65 H          11.9837    6.5855    6.6963 H       1  UNL1        0.0000
     66 H          12.1012    6.0945    5.0085 H       1  UNL1        0.0000
     67 H          12.4809    7.7602    5.4879 H       1  UNL1        0.0000
     68 H          12.2203    8.1709    3.3616 H       1  UNL1        0.0000
     69 H          11.9538   10.7061    3.3981 H       1  UNL1        0.0000
     70 H          11.3633    9.9300    4.8694 H       1  UNL1        0.0000
     71 H          10.2179   10.4657    3.6362 H       1  UNL1        0.0000
     72 H          10.4272    9.5175    1.3019 H       1  UNL1        0.0000
     73 H          12.1666    9.2625    1.2180 H       1  UNL1        0.0000
     74 H          11.0668    7.8842    1.0878 H       1  UNL1        0.0000
@<TRIPOS>BOND
     1    28    12    1
     2    29    13    1
     3    57    43    1
     4    25    11    1
     5    12    27    1
     6    12    26    1
     7    12    11    1
     8    18    17    1
     9    13    31    1
    10    13    11    1
    11    13    30    1
    12    11     2    1
    13    74    52    1
    14    73    52    1
    15    72    52    1
    16    59    44    1
    17    43    58    1
    18    43    42    1
    19    43    56    1
    20    52    50    1
    21    17     1    1
    22    34    15    1
    23    44    42   ar
    24    44    45   ar
    25    42    41   ar
    26    60    45    1
    27    45    46   ar
    28    41    55    1
    29    41    40   ar
    30    15    35    1
    31    15    33    1
    32    15    14    1
    33     2     1    1
    34     2    14    1
    35     2     3    1
    36    46    40   ar
    37    46    10    1
    38    40    39    1
    39    50    68    1
    40    50    39    1
    41    50    51    1
    42    32    14    1
    43     1    10    1
    44     1    39    1
    45     1    53    1
    46    10     9    1
    47    69    51    1
    48    14    16    1
    49     3     9   ar
    50     3     4   ar
    51    71    51    1
    52     9     8   ar
    53    39    47    1
    54    51    70    1
    55    19     4    1
    56     4     5   ar
    57     8    24    1
    58     8     7   ar
    59    20     6    1
    60     5     7   ar
    61     5     6    1
    62     7    23    1
    63    53    54    1
    64    16    36    1
    65    16    37    1
    66    16    38    1
    67    66    49    1
    68    22     6    1
    69     6    21    1
    70    47    49    1
    71    47    48    1
    72    47    61    1
    73    67    49    1
    74    62    48    1
    75    49    65    1
    76    63    48    1
    77    48    64    1
