@<TRIPOS>MOLECULE
CSD_code = AMENCO | q = 1 | S = 0 | Stoichiometry = C4H16CoN6O4(1+) | MND = 6
 31 32 0 0 0
SMALL
GASTEIGER

@<TRIPOS>ATOM
      1 CO          1.5144    2.3744    1.2806 Co.oh   1  UNL1        0.0000
      2 N          -0.2285    2.6810    0.1916 N.4     1  UNL1        0.0000
      3 N           1.4108    0.6115    1.0753 N.pl3   1  UNL1        0.0000
      4 N           0.6292    2.3651    2.8223 N.pl3   1  UNL1        0.0000
      5 N           2.7845    2.4167   -0.4918 N.4     1  UNL1        0.0000
      6 N           3.3198    2.2411    2.2224 N.4     1  UNL1        0.0000
      7 N           1.8540    4.5064    1.5878 N.4     1  UNL1        0.0000
      8 O           0.9592    0.2644    0.0110 O.2     1  UNL1        0.0000
      9 O           1.8702   -0.0750    1.9405 O.2     1  UNL1        0.0000
     10 O          -0.3112    3.1210    2.8547 O.2     1  UNL1        0.0000
     11 O           1.0749    1.7031    3.7133 O.2     1  UNL1        0.0000
     12 C           4.2024    2.4753   -0.0877 C.3     1  UNL1        0.0000
     13 C           4.3648    1.8039    1.2774 C.3     1  UNL1        0.0000
     14 C           3.6143    3.4882    2.9532 C.3     1  UNL1        0.0000
     15 C           3.2030    4.7206    2.1457 C.3     1  UNL1        0.0000
     16 H          -0.5093    1.8365   -0.3121 H       1  UNL1        0.0000
     17 H          -0.1581    3.4186   -0.5068 H       1  UNL1        0.0000
     18 H          -1.0098    2.9377    0.7992 H       1  UNL1        0.0000
     19 H           2.6153    1.5368   -0.9819 H       1  UNL1        0.0000
     20 H           2.6064    3.1438   -1.1803 H       1  UNL1        0.0000
     21 H           3.2483    1.5047    2.9302 H       1  UNL1        0.0000
     22 H           1.7239    5.1236    0.7898 H       1  UNL1        0.0000
     23 H           1.1597    4.8067    2.2741 H       1  UNL1        0.0000
     24 H           4.5107    3.5191   -0.0363 H       1  UNL1        0.0000
     25 H           4.8530    1.9745   -0.8112 H       1  UNL1        0.0000
     26 H           5.3626    2.0136    1.6746 H       1  UNL1        0.0000
     27 H           4.2712    0.7221    1.1557 H       1  UNL1        0.0000
     28 H           4.6773    3.5509    3.2057 H       1  UNL1        0.0000
     29 H           3.0470    3.4683    3.8868 H       1  UNL1        0.0000
     30 H           3.9007    4.8870    1.3254 H       1  UNL1        0.0000
     31 H           3.2403    5.6014    2.7942 H       1  UNL1        0.0000
@<TRIPOS>BOND
     1    20     5    1
     2    19     5    1
     3    25    12    1
     4    17     2    1
     5     5    12    1
     6     5     1    1
     7    16     2    1
     8    12    24    1
     9    12    13    1
    10     8     3    2
    11     2    18    1
    12     2     1    1
    13    22     7    1
    14     3     1    1
    15     3     9    2
    16    27    13    1
    17    13    26    1
    18    13     6    1
    19     1     7    1
    20     1     6    1
    21     1     4    1
    22    30    15    1
    23     7    15    1
    24     7    23    1
    25    15    31    1
    26    15    14    1
    27     6    21    1
    28     6    14    1
    29     4    10    2
    30     4    11    2
    31    14    28    1
    32    14    29    1
