@<TRIPOS>MOLECULE
CSD_code = AMIHIN | q = 0 | S = 0 | Stoichiometry = C12H21CoN4O6 | MND = 6
 44 47 0 0 0
SMALL
GASTEIGER

@<TRIPOS>ATOM
      1 CO         10.0944    3.6286    8.2913 Co.oh   1  UNL1        0.0000
      2 N          10.6337    4.1405    6.4106 N.4     1  UNL1        0.0000
      3 H          11.1708    3.4137    5.9382 H       1  UNL1        0.0000
      4 C          10.7739    0.9186    7.6179 C.3     1  UNL1        0.0000
      5 H          11.0406    0.8513    6.5595 H       1  UNL1        0.0000
      6 H          10.6990   -0.1021    8.0058 H       1  UNL1        0.0000
      7 O           8.4254    4.3352    7.8430 O.3     1  UNL1        0.0000
      8 O          11.7563    2.8489    8.6496 O.3     1  UNL1        0.0000
      9 N          10.6739    5.3327    8.7286 N.3     1  UNL1        0.0000
     10 O           9.7455    3.8086   11.1003 O.3     1  UNL1        0.0000
     11 H          10.0631    4.7573   10.7571 H       1  UNL1        0.0000
     12 O          10.4507    5.8316    9.8842 O.3     1  UNL1        0.0000
     13 C           8.9825    1.9486   10.1273 C.3     1  UNL1        0.0000
     14 N           9.5255    3.0973    9.9924 N.3     1  UNL1        0.0000
     15 N           9.5233    1.6706    7.7796 N.4     1  UNL1        0.0000
     16 H           8.9740    1.5973    6.9247 H       1  UNL1        0.0000
     17 O           7.1340    5.0063    6.1721 O.2     1  UNL1        0.0000
     18 O          13.0041    1.0264    8.4893 O.2     1  UNL1        0.0000
     19 C           7.1941    1.3911    8.5236 C.3     1  UNL1        0.0000
     20 H           6.5623    1.0896    9.3541 H       1  UNL1        0.0000
     21 H           6.9213    0.7984    7.6522 H       1  UNL1        0.0000
     22 H           7.0131    2.4434    8.3155 H       1  UNL1        0.0000
     23 C          11.2401    6.0157    7.8020 C.3     1  UNL1        0.0000
     24 C          11.9684    1.6324    8.3307 C.2     1  UNL1        0.0000
     25 C           9.3936    4.3834    5.6567 C.3     1  UNL1        0.0000
     26 H           9.1389    3.5113    5.0484 H       1  UNL1        0.0000
     27 H           9.4793    5.2429    4.9862 H       1  UNL1        0.0000
     28 C           8.6697    1.1823    8.8765 C.3     1  UNL1        0.0000
     29 H           8.8530    0.1107    9.0518 H       1  UNL1        0.0000
     30 C          11.6745    7.4251    8.0427 C.3     1  UNL1        0.0000
     31 H          10.8526    7.9785    8.4958 H       1  UNL1        0.0000
     32 H          11.9810    7.9054    7.1187 H       1  UNL1        0.0000
     33 H          12.5000    7.4418    8.7544 H       1  UNL1        0.0000
     34 C          12.9859    4.8772    6.4606 C.3     1  UNL1        0.0000
     35 H          13.6370    5.7379    6.5834 H       1  UNL1        0.0000
     36 H          13.2178    4.4052    5.5071 H       1  UNL1        0.0000
     37 H          13.1839    4.1768    7.2690 H       1  UNL1        0.0000
     38 C          11.5208    5.3191    6.5059 C.3     1  UNL1        0.0000
     39 H          11.3266    6.0048    5.6674 H       1  UNL1        0.0000
     40 C           8.6043    1.4184   11.4674 C.3     1  UNL1        0.0000
     41 H           9.4975    1.3428   12.0872 H       1  UNL1        0.0000
     42 H           8.1255    0.4475   11.3934 H       1  UNL1        0.0000
     43 H           7.9397    2.1264   11.9616 H       1  UNL1        0.0000
     44 C           8.1897    4.6244    6.6235 C.2     1  UNL1        0.0000
@<TRIPOS>BOND
     1    27    25    1
     2    26    25    1
     3    36    34    1
     4    25     2    1
     5    25    44    1
     6    39    38    1
     7     3     2    1
     8    17    44    2
     9     2    38    1
    10     2     1    1
    11    34    38    1
    12    34    35    1
    13    34    37    1
    14    38    23    1
    15     5     4    1
    16    44     7    1
    17    16    15    1
    18    32    30    1
    19     4    15    1
    20     4     6    1
    21     4    24    1
    22    21    19    1
    23    15     1    1
    24    15    28    1
    25    23    30    1
    26    23     9    1
    27     7     1    1
    28    30    31    1
    29    30    33    1
    30     1     8    1
    31     1     9    1
    32     1    14    1
    33    22    19    1
    34    24    18    2
    35    24     8    1
    36    19    28    1
    37    19    20    1
    38     9    12    1
    39    28    29    1
    40    28    13    1
    41    14    13    1
    42    14    10    1
    43    13    40    1
    44    11    10    1
    45    42    40    1
    46    40    43    1
    47    40    41    1
