@<TRIPOS>MOLECULE
CSD_code = ARINIY | q = 0 | S = 0 | Stoichiometry = C14H23CoN6O4 | MND = 6
 48 51 0 0 0
SMALL
GASTEIGER

@<TRIPOS>ATOM
      1 CO         -2.7092    1.8166   20.2773 Co.oh   1  UNL1        0.0000
      2 O          -2.6817    4.6878   19.8529 O.3     1  UNL1        0.0000
      3 H          -3.6137    4.3466   19.5740 H       1  UNL1        0.0000
      4 O          -0.9326    0.3257   21.7786 O.3     1  UNL1        0.0000
      5 O          -4.8581    3.4648   19.4197 O.3     1  UNL1        0.0000
      6 O          -2.5756   -1.0786   19.7972 O.3     1  UNL1        0.0000
      7 N          -2.0828    3.5903   20.3979 N.3     1  UNL1        0.0000
      8 N          -1.1577    1.4576   21.2621 N.3     1  UNL1        0.0000
      9 N          -4.4258    2.2642   19.5724 N.3     1  UNL1        0.0000
     10 N          -3.3204    0.0748   19.9400 N.3     1  UNL1        0.0000
     11 N          -3.6383    1.9081   22.1256 N.pl3   1  UNL1        0.0000
     12 N          -4.2540    1.2946   24.1290 N.pl3   1  UNL1        0.0000
     13 H          -4.3280    0.7542   24.9753 H       1  UNL1        0.0000
     14 C          -0.2278    5.0356   21.1278 C.3     1  UNL1        0.0000
     15 H          -0.7996    5.8171   20.6352 H       1  UNL1        0.0000
     16 H           0.7610    4.9729   20.6771 H       1  UNL1        0.0000
     17 H          -0.1050    5.2861   22.1804 H       1  UNL1        0.0000
     18 C          -0.9388    3.7297   20.9861 C.2     1  UNL1        0.0000
     19 C          -3.5233    0.9803   23.0448 C.3     1  UNL1        0.0000
     20 H          -2.9043    0.1077   22.9544 H       1  UNL1        0.0000
     21 C           0.8078    2.4405   22.3772 C.3     1  UNL1        0.0000
     22 H           0.7015    3.0487   23.2751 H       1  UNL1        0.0000
     23 H           1.6797    2.7914   21.8267 H       1  UNL1        0.0000
     24 H           0.9614    1.4030   22.6674 H       1  UNL1        0.0000
     25 C          -6.7332    1.3956   19.4148 C.3     1  UNL1        0.0000
     26 H          -6.9828    2.4528   19.4790 H       1  UNL1        0.0000
     27 H          -7.2735    0.8468   20.1843 H       1  UNL1        0.0000
     28 H          -7.0483    1.0244   18.4397 H       1  UNL1        0.0000
     29 C          -5.2540    1.2491   19.5954 C.2     1  UNL1        0.0000
     30 C          -4.5963   -0.0136   19.7162 C.2     1  UNL1        0.0000
     31 C          -5.3203   -1.3049   19.5199 C.3     1  UNL1        0.0000
     32 H          -4.6062   -2.1205   19.4425 H       1  UNL1        0.0000
     33 H          -5.9317   -1.2627   18.6207 H       1  UNL1        0.0000
     34 H          -5.9794   -1.4938   20.3667 H       1  UNL1        0.0000
     35 C          -1.3777   -0.8373   19.0597 C.3     1  UNL1        0.0000
     36 H          -1.1425   -1.8078   18.6142 H       1  UNL1        0.0000
     37 H          -0.5762   -0.5521   19.7458 H       1  UNL1        0.0000
     38 C          -1.5887    0.2329   17.9884 C.3     1  UNL1        0.0000
     39 H          -2.4900   -0.0207   17.4228 H       1  UNL1        0.0000
     40 H          -0.7390    0.1868   17.3007 H       1  UNL1        0.0000
     41 C          -1.6982    1.6451   18.5640 C.3     1  UNL1        0.0000
     42 H          -2.1701    2.2917   17.8194 H       1  UNL1        0.0000
     43 H          -0.6854    2.0231   18.7325 H       1  UNL1        0.0000
     44 C          -0.4244    2.5106   21.5287 C.2     1  UNL1        0.0000
     45 C          -4.8694    2.4883   23.8777 C.2     1  UNL1        0.0000
     46 H          -5.5151    2.9638   24.5859 H       1  UNL1        0.0000
     47 C          -4.4755    2.8573   22.6273 C.2     1  UNL1        0.0000
     48 H          -4.7429    3.7267   22.0604 H       1  UNL1        0.0000
@<TRIPOS>BOND
     1    40    38    1
     2    39    38    1
     3    42    41    1
     4    38    41    1
     5    38    35    1
     6    28    25    1
     7    41    43    1
     8    41     1    1
     9    36    35    1
    10    33    31    1
    11    35    37    1
    12    35     6    1
    13    25    26    1
    14    25    29    1
    15    25    27    1
    16     5     9    1
    17    32    31    1
    18    31    30    1
    19    31    34    1
    20     9    29    1
    21     9     1    1
    22     3     2    1
    23    29    30    2
    24    30    10    1
    25     6    10    1
    26     2     7    1
    27    10     1    1
    28     1     7    1
    29     1     8    1
    30     1    11    1
    31     7    18    1
    32    15    14    1
    33    16    14    1
    34    18    14    1
    35    18    44    2
    36    14    17    1
    37     8    44    1
    38     8     4    1
    39    44    21    1
    40    23    21    1
    41    48    47    1
    42    11    47    1
    43    11    19    1
    44    21    24    1
    45    21    22    1
    46    47    45    2
    47    20    19    1
    48    19    12    1
    49    45    12    1
    50    45    46    1
    51    12    13    1
