@<TRIPOS>MOLECULE
CSD_code = ASOVUZ | q = 1 | S = 0 | Stoichiometry = C14H14CoN8S2(1+) | MND = 6
 39 44 0 0 0
SMALL
GASTEIGER

@<TRIPOS>ATOM
      1 CO          3.0186    2.0150    8.8576 Co.oh   1  UNL1        0.0000
      2 S           5.0375    2.8962    9.4720 S.3     1  UNL1        0.0000
      3 S           2.0647    4.0910    8.9542 S.3     1  UNL1        0.0000
      4 N           1.4102    1.3363    8.0351 N.pl3   1  UNL1        0.0000
      5 N           3.6038    2.2539    7.1311 N.pl3   1  UNL1        0.0000
      6 N           4.7741    2.7578    6.8195 N.2     1  UNL1        0.0000
      7 N           6.7395    3.6277    7.5964 N.pl3   1  UNL1        0.0000
      8 N           3.7416    0.2406    9.0898 N.pl3   1  UNL1        0.0000
      9 N           2.4545    1.8345   10.5981 N.pl3   1  UNL1        0.0000
     10 N           1.7983    2.7622   11.2534 N.2     1  UNL1        0.0000
     11 N           0.8998    4.8629   11.1891 N.pl3   1  UNL1        0.0000
     12 C           0.2874    0.8766    8.5778 C.3     1  UNL1        0.0000
     13 H           0.2347    0.8502    9.6577 H       1  UNL1        0.0000
     14 C          -0.7875    0.4520    7.8184 C.2     1  UNL1        0.0000
     15 H          -1.6779    0.0919    8.3063 H       1  UNL1        0.0000
     16 C          -0.6969    0.5041    6.4313 C.2     1  UNL1        0.0000
     17 H          -1.5225    0.1828    5.8160 H       1  UNL1        0.0000
     18 C           0.4650    0.9772    5.8589 C.2     1  UNL1        0.0000
     19 H           0.5823    1.0399    4.7893 H       1  UNL1        0.0000
     20 C           1.5129    1.3923    6.6867 C.2     1  UNL1        0.0000
     21 C           2.7530    1.9139    6.2105 C.3     1  UNL1        0.0000
     22 H           2.9730    2.0431    5.1598 H       1  UNL1        0.0000
     23 C           5.5380    3.1071    7.8348 C.2     1  UNL1        0.0000
     24 C           4.4147   -0.5376    8.2485 C.3     1  UNL1        0.0000
     25 H           4.5936   -0.1524    7.2539 H       1  UNL1        0.0000
     26 C           4.8859   -1.7878    8.6052 C.2     1  UNL1        0.0000
     27 H           5.4300   -2.3791    7.8877 H       1  UNL1        0.0000
     28 C           4.6498   -2.2561    9.8936 C.2     1  UNL1        0.0000
     29 H           5.0106   -3.2257   10.1987 H       1  UNL1        0.0000
     30 C           3.9499   -1.4570   10.7729 C.2     1  UNL1        0.0000
     31 H           3.7442   -1.7740   11.7824 H       1  UNL1        0.0000
     32 C           3.5026   -0.2027   10.3461 C.2     1  UNL1        0.0000
     33 C           2.7819    0.7145   11.1685 C.3     1  UNL1        0.0000
     34 H           2.5372    0.5120   12.2020 H       1  UNL1        0.0000
     35 C           1.5599    3.8750   10.5894 C.2     1  UNL1        0.0000
     36 H           7.3137    3.9448    8.3589 H       1  UNL1        0.0000
     37 H           7.0255    3.8066    6.6480 H       1  UNL1        0.0000
     38 H           0.6386    4.7720   12.1568 H       1  UNL1        0.0000
     39 H           0.7476    5.7335   10.7088 H       1  UNL1        0.0000
@<TRIPOS>BOND
     1    19    18    1
     2    22    21    1
     3    17    16    1
     4    18    16    1
     5    18    20    2
     6    21    20    1
     7    21     5    1
     8    16    14    2
     9    37     7    1
    10    20     4    1
    11     6     5    1
    12     6    23    2
    13     5     1    1
    14    25    24    1
    15     7    23    1
    16     7    36    1
    17    14    15    1
    18    14    12    1
    19    23     2    1
    20    27    26    1
    21     4    12    1
    22     4     1    1
    23    24    26    1
    24    24     8    1
    25    12    13    1
    26    26    28    2
    27     1     3    1
    28     1     8    1
    29     1     2    1
    30     1     9    1
    31     3    35    1
    32     8    32    1
    33    28    29    1
    34    28    30    1
    35    32    30    2
    36    32    33    1
    37    35    11    1
    38    35    10    2
    39     9    33    1
    40     9    10    1
    41    39    11    1
    42    30    31    1
    43    33    34    1
    44    11    38    1
