@<TRIPOS>MOLECULE
CSD_code = BAMJAB | q = 0 | S = 0 | Stoichiometry = C26H23CoN8OS | MND = 6
 60 66 0 0 0
SMALL
GASTEIGER

@<TRIPOS>ATOM
      1 CO         -1.0031    4.5460    5.2225 Co.oh   1  UNL1        0.0000
      2 S          -0.1077    6.3988    4.1519 S.3     1  UNL1        0.0000
      3 N          -1.5473    3.9088    3.5419 N.pl3   1  UNL1        0.0000
      4 N          -0.4791    5.2396    6.9115 N.pl3   1  UNL1        0.0000
      5 N          -2.5965    5.5764    5.5233 N.pl3   1  UNL1        0.0000
      6 N          -1.3760    4.7371    2.4826 N.2     1  UNL1        0.0000
      7 O          -1.8137    3.1239    6.1498 O.3     1  UNL1        0.0000
      8 C          -0.7128    5.8417    2.6275 C.2     1  UNL1        0.0000
      9 C          -1.4296    5.9595    7.5320 C.2     1  UNL1        0.0000
     10 N           0.5583    3.5687    5.0248 N.2     1  UNL1        0.0000
     11 C           0.2273    7.7845    1.5018 C.ar    1  UNL1        0.0000
     12 N          -0.5598    6.6191    1.5250 N.pl3   1  UNL1        0.0000
     13 C          -2.6408    6.1461    6.7440 C.2     1  UNL1        0.0000
     14 C          -2.0734    2.7405    3.2705 C.3     1  UNL1        0.0000
     15 N           0.8175    2.5800    4.4519 N.2     1  UNL1        0.0000
     16 C           0.6762    5.0266    7.5279 C.2     1  UNL1        0.0000
     17 C          -3.7571    6.8600    7.1752 C.2     1  UNL1        0.0000
     18 C          -2.1117    1.9676    5.6516 C.ar    1  UNL1        0.0000
     19 C          -3.6496    5.7103    4.7222 C.2     1  UNL1        0.0000
     20 C          -2.3377    0.9100    6.5605 C.ar    1  UNL1        0.0000
     21 C          -1.2274    6.4809    8.8090 C.2     1  UNL1        0.0000
     22 C          -2.2651    1.7112    4.2594 C.ar    1  UNL1        0.0000
     23 C           1.5291    7.7809    1.9935 C.ar    1  UNL1        0.0000
     24 C          -1.2181    6.1988    0.3061 C.3     1  UNL1        0.0000
     25 C          -4.8473    6.9913    6.3377 C.2     1  UNL1        0.0000
     26 C          -0.0250    6.2532    9.4500 C.2     1  UNL1        0.0000
     27 C          -2.4846    2.4496    1.8531 C.3     1  UNL1        0.0000
     28 N           1.2113    1.6430    3.9476 N.2     1  UNL1        0.0000
     29 C           0.9486    5.5136    8.7934 C.2     1  UNL1        0.0000
     30 C          -2.5910    0.4028    3.8610 C.ar    1  UNL1        0.0000
     31 C          -4.7886    6.4047    5.0807 C.2     1  UNL1        0.0000
     32 C          -0.2866    8.9488    0.9371 C.ar    1  UNL1        0.0000
     33 C          -2.6720   -0.3469    6.1313 C.ar    1  UNL1        0.0000
     34 C          -2.7891   -0.6083    4.7678 C.ar    1  UNL1        0.0000
     35 C           1.7773   10.0897    1.3801 C.ar    1  UNL1        0.0000
     36 C           2.2925    8.9317    1.9380 C.ar    1  UNL1        0.0000
     37 C           0.4876   10.0926    0.8768 C.ar    1  UNL1        0.0000
     38 H          -2.0002    7.0551    9.2936 H       1  UNL1        0.0000
     39 H          -2.2255    1.1352    7.6106 H       1  UNL1        0.0000
     40 H          -1.2975    8.9595    0.5567 H       1  UNL1        0.0000
     41 H           0.1505    6.6451   10.4403 H       1  UNL1        0.0000
     42 H          -5.6124    6.4809    4.3894 H       1  UNL1        0.0000
     43 H          -3.7708    7.3048    8.1567 H       1  UNL1        0.0000
     44 H          -3.5847    5.2496    3.7467 H       1  UNL1        0.0000
     45 H           3.3014    8.9192    2.3224 H       1  UNL1        0.0000
     46 H           1.4012    4.4427    6.9786 H       1  UNL1        0.0000
     47 H           1.9385    6.8759    2.4128 H       1  UNL1        0.0000
     48 H           2.3788   10.9852    1.3342 H       1  UNL1        0.0000
     49 H          -5.7223    7.5380    6.6539 H       1  UNL1        0.0000
     50 H          -3.4466    1.9444    1.8304 H       1  UNL1        0.0000
     51 H           1.9023    5.3131    9.2543 H       1  UNL1        0.0000
     52 H          -0.8765    6.8219   -0.5168 H       1  UNL1        0.0000
     53 H          -2.6640    0.1701    2.8112 H       1  UNL1        0.0000
     54 H          -2.5451    3.3798    1.2961 H       1  UNL1        0.0000
     55 H          -2.8296   -1.1378    6.8504 H       1  UNL1        0.0000
     56 H           0.0780   10.9918    0.4400 H       1  UNL1        0.0000
     57 H          -2.3044    6.2756    0.4005 H       1  UNL1        0.0000
     58 H          -0.9656    5.1573    0.1011 H       1  UNL1        0.0000
     59 H          -3.0268   -1.6039    4.4251 H       1  UNL1        0.0000
     60 H          -1.7374    1.8144    1.3797 H       1  UNL1        0.0000
@<TRIPOS>BOND
     1    52    24    1
     2    58    24    1
     3    24    57    1
     4    24    12    1
     5    56    37    1
     6    40    32    1
     7    37    32   ar
     8    37    35   ar
     9    32    11   ar
    10    54    27    1
    11    48    35    1
    12    60    27    1
    13    35    36   ar
    14    11    12    1
    15    11    23   ar
    16    12     8    1
    17    50    27    1
    18    27    14    1
    19    36    23   ar
    20    36    45    1
    21    23    47    1
    22     6     8    2
    23     6     3    1
    24     8     2    1
    25    53    30    1
    26    14     3    1
    27    14    22    1
    28     3     1    1
    29    44    19    1
    30    30    22   ar
    31    30    34   ar
    32    28    15    2
    33     2     1    1
    34    22    18   ar
    35    42    31    1
    36    59    34    1
    37    15    10    2
    38    19    31    2
    39    19     5    1
    40    34    33   ar
    41    10     1    1
    42    31    25    1
    43     1     5    1
    44     1     7    1
    45     1     4    1
    46     5    13    1
    47    18     7    1
    48    18    20   ar
    49    33    20   ar
    50    33    55    1
    51    25    49    1
    52    25    17    2
    53    20    39    1
    54    13    17    1
    55    13     9    2
    56     4    16    1
    57     4     9    1
    58    46    16    1
    59    17    43    1
    60    16    29    2
    61     9    21    1
    62    29    51    1
    63    29    26    1
    64    21    38    1
    65    21    26    2
    66    26    41    1
