@<TRIPOS>MOLECULE
CSD_code = BENCIH | q = 0 | S = 0 | Stoichiometry = C27H21CoN8O2 | MND = 6
 59 66 0 0 0
SMALL
GASTEIGER

@<TRIPOS>ATOM
      1 CO          8.5323    9.1291    4.5708 Co.oh   1  UNL1        0.0000
      2 O           7.4690    9.4882    3.1163 O.3     1  UNL1        0.0000
      3 O           9.5912    8.6919    6.1106 O.2     1  UNL1        0.0000
      4 N           9.8888   10.1695    3.8714 N.2     1  UNL1        0.0000
      5 N          10.5896   10.0214    2.9426 N.2     1  UNL1        0.0000
      6 N          11.3293   10.0127    2.0834 N.2     1  UNL1        0.0000
      7 N           7.0691    8.1068    5.3622 N.pl3   1  UNL1        0.0000
      8 N           7.7486   10.6341    5.4828 N.pl3   1  UNL1        0.0000
      9 N           9.3191    7.6316    3.8213 N.pl3   1  UNL1        0.0000
     10 N          10.1525    7.0010    4.6905 N.2     1  UNL1        0.0000
     11 N          11.0969    7.0509    6.7415 N.pl3   1  UNL1        0.0000
     12 C           6.7476    6.8277    5.2746 C.2     1  UNL1        0.0000
     13 C           5.6465    6.2779    5.9306 C.2     1  UNL1        0.0000
     14 C           4.8408    7.0787    6.7096 C.2     1  UNL1        0.0000
     15 C           5.1548    8.4426    6.8207 C.ar    1  UNL1        0.0000
     16 C           6.2867    8.9036    6.1188 C.ar    1  UNL1        0.0000
     17 C           6.6589   10.2739    6.1866 C.ar    1  UNL1        0.0000
     18 C           5.9016   11.1771    6.9610 C.ar    1  UNL1        0.0000
     19 C           6.3302   12.5140    6.9854 C.2     1  UNL1        0.0000
     20 C           7.4492   12.8631    6.2645 C.2     1  UNL1        0.0000
     21 C           8.1308   11.8940    5.5228 C.2     1  UNL1        0.0000
     22 C           4.7635   10.6841    7.6616 C.ar    1  UNL1        0.0000
     23 C           4.4060    9.3769    7.5934 C.ar    1  UNL1        0.0000
     24 C           7.5398    8.9240    1.9484 C.ar    1  UNL1        0.0000
     25 C           6.7229    9.4682    0.9328 C.ar    1  UNL1        0.0000
     26 C           6.7020    8.9483   -0.3347 C.ar    1  UNL1        0.0000
     27 C           7.5044    7.8546   -0.6505 C.ar    1  UNL1        0.0000
     28 C           8.3076    7.3009    0.3156 C.ar    1  UNL1        0.0000
     29 C           8.3519    7.7978    1.6297 C.ar    1  UNL1        0.0000
     30 C           9.2113    7.1746    2.6055 C.3     1  UNL1        0.0000
     31 C          10.0145    5.9646    2.2176 C.3     1  UNL1        0.0000
     32 C          10.2482    7.6337    5.8380 C.2     1  UNL1        0.0000
     33 C          11.4681    7.4640    8.0117 C.ar    1  UNL1        0.0000
     34 C          12.4099    6.6965    8.7000 C.ar    1  UNL1        0.0000
     35 C          12.8103    7.0540    9.9717 C.ar    1  UNL1        0.0000
     36 C          12.2806    8.1800   10.5807 C.ar    1  UNL1        0.0000
     37 C          11.3473    8.9441    9.9010 C.ar    1  UNL1        0.0000
     38 C          10.9380    8.5959    8.6274 C.ar    1  UNL1        0.0000
     39 H           3.5407    9.0137    8.1280 H       1  UNL1        0.0000
     40 H          13.5414    6.4510   10.4901 H       1  UNL1        0.0000
     41 H          10.2174    9.1966    8.0978 H       1  UNL1        0.0000
     42 H           7.8087   13.8800    6.2597 H       1  UNL1        0.0000
     43 H          11.5710    6.2376    6.3757 H       1  UNL1        0.0000
     44 H          10.7374    6.2362    1.4508 H       1  UNL1        0.0000
     45 H          12.8271    5.8188    8.2262 H       1  UNL1        0.0000
     46 H           6.1164   10.3207    1.1997 H       1  UNL1        0.0000
     47 H          12.5953    8.4595   11.5748 H       1  UNL1        0.0000
     48 H           4.1885   11.3816    8.2526 H       1  UNL1        0.0000
     49 H           7.3828    6.2017    4.6637 H       1  UNL1        0.0000
     50 H           7.4993    7.4474   -1.6501 H       1  UNL1        0.0000
     51 H          10.5472    5.6032    3.0921 H       1  UNL1        0.0000
     52 H           6.0682    9.3920   -1.0889 H       1  UNL1        0.0000
     53 H           8.9276    6.4610    0.0476 H       1  UNL1        0.0000
     54 H           9.3673    5.1792    1.8324 H       1  UNL1        0.0000
     55 H           3.9831    6.6771    7.2280 H       1  UNL1        0.0000
     56 H           5.7827   13.2444    7.5629 H       1  UNL1        0.0000
     57 H           5.4390    5.2254    5.8181 H       1  UNL1        0.0000
     58 H           9.0092   12.1435    4.9453 H       1  UNL1        0.0000
     59 H          10.9314    9.8260   10.3665 H       1  UNL1        0.0000
@<TRIPOS>BOND
     1    50    27    1
     2    52    26    1
     3    27    26   ar
     4    27    28   ar
     5    26    25   ar
     6    53    28    1
     7    28    29   ar
     8    25    46    1
     9    25    24   ar
    10    44    31    1
    11    29    24   ar
    12    29    30    1
    13    54    31    1
    14    24     2    1
    15     6     5    2
    16    31    30    1
    17    31    51    1
    18    30     9    1
    19     5     4    2
    20     2     1    1
    21     9     1    1
    22     9    10    1
    23     4     1    1
    24     1     7    1
    25     1     8    1
    26     1     3    1
    27    49    12    1
    28    10    32    2
    29    58    21    1
    30    12     7    1
    31    12    13    2
    32     7    16    1
    33     8    21    1
    34     8    17    1
    35    21    20    2
    36    57    13    1
    37    32     3    1
    38    32    11    1
    39    13    14    1
    40    16    17   ar
    41    16    15   ar
    42    17    18   ar
    43    42    20    1
    44    20    19    1
    45    43    11    1
    46    14    15    2
    47    14    55    1
    48    11    33    1
    49    15    23   ar
    50    18    19    2
    51    18    22   ar
    52    19    56    1
    53    23    22   ar
    54    23    39    1
    55    22    48    1
    56    33    38   ar
    57    33    34   ar
    58    41    38    1
    59    45    34    1
    60    38    37   ar
    61    34    35   ar
    62    37    59    1
    63    37    36   ar
    64    35    40    1
    65    35    36   ar
    66    36    47    1
