@<TRIPOS>MOLECULE
CSD_code = BIMMUG | q = 0 | S = 0 | Stoichiometry = C23H22CoN5O4 | MND = 6
 55 61 0 0 0
SMALL
GASTEIGER

@<TRIPOS>ATOM
      1 CO          5.6774    1.3482   -1.5586 Co.oh   1  UNL1        0.0000
      2 O           3.3659   -1.7303   -0.8139 O.2     1  UNL1        0.0000
      3 O           1.8551    0.5492   -1.8371 O.2     1  UNL1        0.0000
      4 O           5.8097    3.1204   -2.1308 O.3     1  UNL1        0.0000
      5 O           4.7040    4.7751   -3.0768 O.2     1  UNL1        0.0000
      6 N           7.4382    1.2856   -1.4120 N.pl3   1  UNL1        0.0000
      7 N           5.7132    1.8596    0.2409 N.pl3   1  UNL1        0.0000
      8 N           5.9719    0.7779   -3.3272 N.pl3   1  UNL1        0.0000
      9 N           5.1680   -0.3750   -1.0688 N.am    1  UNL1        0.0000
     10 N           3.8826    1.5931   -1.7741 N.am    1  UNL1        0.0000
     11 C           7.9907    1.7774   -0.2944 C.2     1  UNL1        0.0000
     12 C           9.3616    1.9961   -0.2278 C.2     1  UNL1        0.0000
     13 C          10.1328    1.7261   -1.3507 C.2     1  UNL1        0.0000
     14 C           9.5283    1.2908   -2.5230 C.2     1  UNL1        0.0000
     15 C           8.1525    1.0925   -2.5287 C.2     1  UNL1        0.0000
     16 C           6.9715    2.0473    0.7039 C.2     1  UNL1        0.0000
     17 C           7.2143    2.4509    2.0148 C.2     1  UNL1        0.0000
     18 C           6.1467    2.6544    2.8677 C.2     1  UNL1        0.0000
     19 C           4.8622    2.4297    2.3889 C.2     1  UNL1        0.0000
     20 C           4.6927    2.0313    1.0748 C.2     1  UNL1        0.0000
     21 C           7.2881    0.7304   -3.6386 C.3     1  UNL1        0.0000
     22 C           7.7254    0.3748   -4.9122 C.2     1  UNL1        0.0000
     23 C           6.7944    0.0572   -5.8822 C.2     1  UNL1        0.0000
     24 C           5.4477    0.0912   -5.5454 C.2     1  UNL1        0.0000
     25 C           5.0835    0.4543   -4.2608 C.2     1  UNL1        0.0000
     26 C           3.8606   -0.6584   -1.1180 C.2     1  UNL1        0.0000
     27 C           3.0579    0.5556   -1.6193 C.2     1  UNL1        0.0000
     28 C           3.4403    2.8702   -2.2933 C.3     1  UNL1        0.0000
     29 C           4.7240    3.6859   -2.5434 C.2     1  UNL1        0.0000
     30 C           2.5124    3.6033   -1.3091 C.3     1  UNL1        0.0000
     31 C           1.8314    4.8429   -1.8972 C.3     1  UNL1        0.0000
     32 C           0.7966    4.4655   -2.9542 C.3     1  UNL1        0.0000
     33 C           1.1589    5.6275   -0.7712 C.3     1  UNL1        0.0000
     34 H           9.8168    2.3870    0.6674 H       1  UNL1        0.0000
     35 H          11.1992    1.8862   -1.3226 H       1  UNL1        0.0000
     36 H          10.1140    1.1322   -3.4136 H       1  UNL1        0.0000
     37 H           8.2280    2.5959    2.3519 H       1  UNL1        0.0000
     38 H           6.3091    2.9718    3.8860 H       1  UNL1        0.0000
     39 H           4.0005    2.5608    3.0228 H       1  UNL1        0.0000
     40 H           3.7067    1.8390    0.6772 H       1  UNL1        0.0000
     41 H           8.7811    0.3495   -5.1289 H       1  UNL1        0.0000
     42 H           7.1084   -0.2160   -6.8776 H       1  UNL1        0.0000
     43 H           4.6859   -0.1579   -6.2658 H       1  UNL1        0.0000
     44 H           4.0424    0.4777   -3.9735 H       1  UNL1        0.0000
     45 H           5.7285   -1.1555   -0.7394 H       1  UNL1        0.0000
     46 H           2.9096    2.7312   -3.2449 H       1  UNL1        0.0000
     47 H           1.7489    2.8896   -0.9887 H       1  UNL1        0.0000
     48 H           3.1026    3.9005   -0.4363 H       1  UNL1        0.0000
     49 H           2.5989    5.4710   -2.3587 H       1  UNL1        0.0000
     50 H           0.2470    5.3485   -3.2734 H       1  UNL1        0.0000
     51 H           1.2714    4.0339   -3.8309 H       1  UNL1        0.0000
     52 H           0.0897    3.7417   -2.5537 H       1  UNL1        0.0000
     53 H           1.8881    5.9366   -0.0250 H       1  UNL1        0.0000
     54 H           0.6762    6.5191   -1.1646 H       1  UNL1        0.0000
     55 H           0.4028    5.0150   -0.2830 H       1  UNL1        0.0000
@<TRIPOS>BOND
     1    42    23    1
     2    43    24    1
     3    23    24    1
     4    23    22    2
     5    24    25    2
     6    41    22    1
     7    22    21    1
     8    25    44    1
     9    25     8    1
    10    51    32    1
    11    21     8    1
    12    21    15    1
    13    36    14    1
    14     8     1    1
    15    50    32    1
    16    46    28    1
    17     5    29    2
    18    32    52    1
    19    32    31    1
    20    29    28    1
    21    29     4    1
    22    15    14    2
    23    15     6    1
    24    14    13    1
    25    49    31    1
    26    28    10    1
    27    28    30    1
    28     4     1    1
    29    31    30    1
    30    31    33    1
    31     3    27    2
    32    10    27   am
    33    10     1    1
    34    27    26    1
    35     1     6    1
    36     1     9    1
    37     1     7    1
    38     6    11    1
    39    13    35    1
    40    13    12    2
    41    30    47    1
    42    30    48    1
    43    54    33    1
    44    26     9   am
    45    26     2    2
    46     9    45    1
    47    33    55    1
    48    33    53    1
    49    11    12    1
    50    11    16    2
    51    12    34    1
    52     7    16    1
    53     7    20    1
    54    40    20    1
    55    16    17    1
    56    20    19    2
    57    17    37    1
    58    17    18    2
    59    19    18    1
    60    19    39    1
    61    18    38    1
