@<TRIPOS>MOLECULE
CSD_code = BIMNAN | q = 0 | S = 0 | Stoichiometry = C28H25CoN6O4 | MND = 6
 64 71 0 0 0
SMALL
GASTEIGER

@<TRIPOS>ATOM
      1 CO         -7.7654   -3.2142   -6.9491 Co.oh   1  UNL1        0.0000
      2 O          -5.2786   -6.0798   -5.7607 O.2     1  UNL1        0.0000
      3 O          -4.8148   -2.5760   -9.5059 O.2     1  UNL1        0.0000
      4 O          -9.1927   -0.0810   -9.2935 O.co2   1  UNL1        0.0000
      5 O          -8.9623   -2.1571  -10.1026 O.co2   1  UNL1        0.0000
      6 N          -9.1666   -2.0751   -6.9705 N.pl3   1  UNL1        0.0000
      7 N          -6.9919   -1.8690   -5.7741 N.pl3   1  UNL1        0.0000
      8 N          -8.8309   -4.2157   -8.1784 N.pl3   1  UNL1        0.0000
      9 N          -8.4579   -4.3927   -5.3476 N.4     1  UNL1        0.0000
     10 N          -6.3593   -4.4149   -6.8788 N.am    1  UNL1        0.0000
     11 N          -6.7281   -2.3688   -8.2945 N.am    1  UNL1        0.0000
     12 C          -9.0576   -0.8910   -6.3505 C.2     1  UNL1        0.0000
     13 C         -10.1074    0.0220   -6.3941 C.2     1  UNL1        0.0000
     14 C         -11.2507   -0.3191   -7.0950 C.2     1  UNL1        0.0000
     15 C         -11.3384   -1.5462   -7.7423 C.2     1  UNL1        0.0000
     16 C         -10.2532   -2.4074   -7.6777 C.2     1  UNL1        0.0000
     17 C          -7.7501   -0.7406   -5.7312 C.2     1  UNL1        0.0000
     18 C          -7.2638    0.4406   -5.1708 C.2     1  UNL1        0.0000
     19 C          -5.9899    0.4657   -4.6429 C.2     1  UNL1        0.0000
     20 C          -5.2259   -0.6980   -4.6849 C.2     1  UNL1        0.0000
     21 C          -5.7643   -1.8305   -5.2639 C.2     1  UNL1        0.0000
     22 C         -10.0439   -3.6586   -8.4004 C.3     1  UNL1        0.0000
     23 C         -10.9612   -4.2300   -9.2755 C.2     1  UNL1        0.0000
     24 C         -10.5993   -5.3545   -9.9908 C.2     1  UNL1        0.0000
     25 C          -9.3375   -5.8921   -9.7900 C.2     1  UNL1        0.0000
     26 C          -8.4937   -5.2958   -8.8706 C.2     1  UNL1        0.0000
     27 C          -7.3452   -5.2238   -4.8515 C.3     1  UNL1        0.0000
     28 C          -6.2071   -5.2934   -5.9038 C.2     1  UNL1        0.0000
     29 C          -7.8083   -6.6430   -4.4777 C.3     1  UNL1        0.0000
     30 C          -8.5166   -7.2874   -5.6349 C.ar    1  UNL1        0.0000
     31 C          -7.7950   -7.9561   -6.6170 C.ar    1  UNL1        0.0000
     32 C          -8.4417   -8.5104   -7.7061 C.ar    1  UNL1        0.0000
     33 C          -9.8165   -8.3944   -7.8369 C.ar    1  UNL1        0.0000
     34 C         -10.5438   -7.7274   -6.8682 C.ar    1  UNL1        0.0000
     35 C          -9.8971   -7.1792   -5.7726 C.ar    1  UNL1        0.0000
     36 C          -5.3307   -4.2759   -7.8828 C.3     1  UNL1        0.0000
     37 C          -5.5967   -2.9960   -8.6693 C.2     1  UNL1        0.0000
     38 C          -7.0951   -1.1612   -8.9465 C.3     1  UNL1        0.0000
     39 C          -8.6022   -1.1311   -9.5276 C.2     1  UNL1        0.0000
     40 H         -10.0212    0.9858   -5.9203 H       1  UNL1        0.0000
     41 H         -12.0677    0.3814   -7.1642 H       1  UNL1        0.0000
     42 H         -12.2096   -1.7963   -8.3236 H       1  UNL1        0.0000
     43 H          -7.8800    1.3248   -5.1747 H       1  UNL1        0.0000
     44 H          -5.5909    1.3704   -4.2113 H       1  UNL1        0.0000
     45 H          -4.2274   -0.7227   -4.2807 H       1  UNL1        0.0000
     46 H          -5.1938   -2.7464   -5.3203 H       1  UNL1        0.0000
     47 H         -11.9211   -3.7640   -9.4238 H       1  UNL1        0.0000
     48 H         -11.2806   -5.7936  -10.7031 H       1  UNL1        0.0000
     49 H          -9.0013   -6.7524  -10.3447 H       1  UNL1        0.0000
     50 H          -7.5140   -5.7054   -8.6814 H       1  UNL1        0.0000
     51 H          -8.9109   -3.9230   -4.5660 H       1  UNL1        0.0000
     52 H          -9.1488   -5.0338   -5.7470 H       1  UNL1        0.0000
     53 H          -6.9119   -4.7444   -3.9660 H       1  UNL1        0.0000
     54 H          -6.9132   -7.2123   -4.2239 H       1  UNL1        0.0000
     55 H          -8.4639   -6.6021   -3.6035 H       1  UNL1        0.0000
     56 H          -6.7235   -8.0375   -6.5172 H       1  UNL1        0.0000
     57 H          -7.8719   -9.0396   -8.4552 H       1  UNL1        0.0000
     58 H         -10.3219   -8.8328   -8.6843 H       1  UNL1        0.0000
     59 H         -11.6169   -7.6398   -6.9580 H       1  UNL1        0.0000
     60 H         -10.4833   -6.6973   -4.9990 H       1  UNL1        0.0000
     61 H          -4.3352   -4.2209   -7.4248 H       1  UNL1        0.0000
     62 H          -5.3115   -5.1250   -8.5779 H       1  UNL1        0.0000
     63 H          -7.0082   -0.2933   -8.2779 H       1  UNL1        0.0000
     64 H          -6.4583   -1.0221   -9.8250 H       1  UNL1        0.0000
@<TRIPOS>BOND
     1    48    24    1
     2    49    25    1
     3     5    39   ar
     4    24    25    1
     5    24    23    2
     6    64    38    1
     7    25    26    2
     8    39     4   ar
     9    39    38    1
    10     3    37    2
    11    47    23    1
    12    23    22    1
    13    38    11    1
    14    38    63    1
    15    26    50    1
    16    26     8    1
    17    58    33    1
    18    37    11   am
    19    37    36    1
    20    62    36    1
    21    57    32    1
    22    22     8    1
    23    22    16    1
    24    42    15    1
    25    11     1    1
    26     8     1    1
    27    36    61    1
    28    36    10    1
    29    33    32   ar
    30    33    34   ar
    31    15    16    2
    32    15    14    1
    33    32    31   ar
    34    16     6    1
    35    41    14    1
    36    14    13    2
    37     6     1    1
    38     6    12    1
    39    59    34    1
    40     1    10    1
    41     1     7    1
    42     1     9    1
    43    10    28   am
    44    34    35   ar
    45    31    56    1
    46    31    30   ar
    47    13    12    1
    48    13    40    1
    49    12    17    2
    50    28     2    2
    51    28    27    1
    52     7    17    1
    53     7    21    1
    54    35    30   ar
    55    35    60    1
    56    52     9    1
    57    17    18    1
    58    30    29    1
    59     9    27    1
    60     9    51    1
    61    46    21    1
    62    21    20    2
    63    43    18    1
    64    18    19    2
    65    27    29    1
    66    27    53    1
    67    20    19    1
    68    20    45    1
    69    19    44    1
    70    29    54    1
    71    29    55    1
