@<TRIPOS>MOLECULE
CSD_code = BODREU | q = 0 | S = 0 | Stoichiometry = C39H62CoNOP2 | MND = 4
 106 110 0 0 0
SMALL
GASTEIGER

@<TRIPOS>ATOM
      1 CO         10.1082    6.2926   10.2427 Co.oh   1  UNL1        0.0000
      2 P          10.6364    8.2843    9.3539 P.3     1  UNL1        0.0000
      3 P           9.2688    4.7519   11.6389 P.3     1  UNL1        0.0000
      4 O           7.6117    6.3547    8.8383 O.3     1  UNL1        0.0000
      5 N          11.9297    5.8499   10.6477 N.ar    1  UNL1        0.0000
      6 C          13.0025    6.3557    9.9427 C.ar    1  UNL1        0.0000
      7 C          13.2761    7.6695    9.5460 C.ar    1  UNL1        0.0000
      8 C          14.4609    7.9301    8.8855 C.ar    1  UNL1        0.0000
      9 H          14.6684    8.9579    8.6179 H       1  UNL1        0.0000
     10 C          15.4085    6.9456    8.5754 C.ar    1  UNL1        0.0000
     11 C          15.1652    5.6565    9.0101 C.ar    1  UNL1        0.0000
     12 H          15.8715    4.8591    8.8462 H       1  UNL1        0.0000
     13 C          13.9987    5.3733    9.7074 C.ar    1  UNL1        0.0000
     14 C          13.5431    4.2007   10.3810 C.ar    1  UNL1        0.0000
     15 C          14.0992    2.9444   10.5609 C.ar    1  UNL1        0.0000
     16 H          15.0240    2.7084   10.0560 H       1  UNL1        0.0000
     17 C          13.4870    2.0282   11.4004 C.ar    1  UNL1        0.0000
     18 C          12.3416    2.4390   12.0888 C.ar    1  UNL1        0.0000
     19 H          11.8999    1.7831   12.8242 H       1  UNL1        0.0000
     20 C          11.7512    3.6774   11.9074 C.ar    1  UNL1        0.0000
     21 C          12.3126    4.5675   10.9867 C.ar    1  UNL1        0.0000
     22 C          10.5912    4.1164   12.7424 C.3     1  UNL1        0.0000
     23 H          10.9131    4.9685   13.3479 H       1  UNL1        0.0000
     24 H          10.2413    3.3194   13.4004 H       1  UNL1        0.0000
     25 C          12.3247    8.7680    9.8944 C.3     1  UNL1        0.0000
     26 H          12.6421    9.7224    9.4702 H       1  UNL1        0.0000
     27 H          12.2775    8.8540   10.9841 H       1  UNL1        0.0000
     28 C          16.6618    7.3458    7.8117 C.3     1  UNL1        0.0000
     29 C          16.2579    7.9798    6.4725 C.3     1  UNL1        0.0000
     30 H          17.1435    8.2378    5.8948 H       1  UNL1        0.0000
     31 H          15.6761    8.8858    6.6206 H       1  UNL1        0.0000
     32 H          15.6585    7.2806    5.8925 H       1  UNL1        0.0000
     33 C          17.4635    8.3570    8.6433 C.3     1  UNL1        0.0000
     34 H          17.7358    7.9203    9.6020 H       1  UNL1        0.0000
     35 H          16.8875    9.2589    8.8330 H       1  UNL1        0.0000
     36 H          18.3750    8.6388    8.1192 H       1  UNL1        0.0000
     37 C          17.5696    6.1497    7.5127 C.3     1  UNL1        0.0000
     38 H          18.4365    6.4822    6.9442 H       1  UNL1        0.0000
     39 H          17.0450    5.4012    6.9232 H       1  UNL1        0.0000
     40 H          17.9267    5.6919    8.4323 H       1  UNL1        0.0000
     41 C          14.0952    0.6438   11.5725 C.3     1  UNL1        0.0000
     42 C          14.1671   -0.0410   10.1999 C.3     1  UNL1        0.0000
     43 H          13.1696   -0.1355    9.7748 H       1  UNL1        0.0000
     44 H          14.5983   -1.0359   10.2952 H       1  UNL1        0.0000
     45 H          14.7779    0.5302    9.5065 H       1  UNL1        0.0000
     46 C          15.5082    0.7800   12.1565 C.3     1  UNL1        0.0000
     47 H          16.1502    1.3595   11.4990 H       1  UNL1        0.0000
     48 H          15.9570   -0.2021   12.2947 H       1  UNL1        0.0000
     49 H          15.4689    1.2821   13.1212 H       1  UNL1        0.0000
     50 C          13.2793   -0.2566   12.5047 C.3     1  UNL1        0.0000
     51 H          13.2443    0.1501   13.5130 H       1  UNL1        0.0000
     52 H          13.7439   -1.2397   12.5573 H       1  UNL1        0.0000
     53 H          12.2639   -0.3844   12.1352 H       1  UNL1        0.0000
     54 C           8.6349    3.1749   10.7919 C.3     1  UNL1        0.0000
     55 C           9.5291    3.0292    9.5552 C.3     1  UNL1        0.0000
     56 H           9.4797    3.9291    8.9376 H       1  UNL1        0.0000
     57 H           9.2051    2.1824    8.9512 H       1  UNL1        0.0000
     58 H          10.5666    2.8682    9.8408 H       1  UNL1        0.0000
     59 C           7.1834    3.3104   10.3297 C.3     1  UNL1        0.0000
     60 H           6.4934    3.3033   11.1700 H       1  UNL1        0.0000
     61 H           6.9301    2.4653    9.6893 H       1  UNL1        0.0000
     62 H           7.0330    4.2174    9.7523 H       1  UNL1        0.0000
     63 C           8.7681    1.9135   11.6456 C.3     1  UNL1        0.0000
     64 H           9.8116    1.6767   11.8291 H       1  UNL1        0.0000
     65 H           8.3296    1.0747   11.1052 H       1  UNL1        0.0000
     66 H           8.2476    2.0051   12.5951 H       1  UNL1        0.0000
     67 C           8.0243    5.4104   12.9150 C.3     1  UNL1        0.0000
     68 C           6.8816    6.1424   12.2125 C.3     1  UNL1        0.0000
     69 H           7.2788    6.9590   11.6135 H       1  UNL1        0.0000
     70 H           6.2025    6.5635   12.9538 H       1  UNL1        0.0000
     71 H           6.3078    5.4879   11.5651 H       1  UNL1        0.0000
     72 C           7.4556    4.3476   13.8514 C.3     1  UNL1        0.0000
     73 H           6.8024    3.6584   13.3228 H       1  UNL1        0.0000
     74 H           6.8652    4.8339   14.6281 H       1  UNL1        0.0000
     75 H           8.2446    3.7818   14.3412 H       1  UNL1        0.0000
     76 C           8.8047    6.4513   13.7286 C.3     1  UNL1        0.0000
     77 H           9.3995    5.9883   14.5121 H       1  UNL1        0.0000
     78 H           8.1182    7.1516   14.2021 H       1  UNL1        0.0000
     79 H           9.4680    7.0159   13.0680 H       1  UNL1        0.0000
     80 C           9.6360    9.7930    9.9393 C.3     1  UNL1        0.0000
     81 C           8.1378    9.5563    9.7508 C.3     1  UNL1        0.0000
     82 H           7.8678    9.4150    8.7100 H       1  UNL1        0.0000
     83 H           7.5813   10.4137   10.1292 H       1  UNL1        0.0000
     84 H           7.8247    8.6782   10.3101 H       1  UNL1        0.0000
     85 C          10.0302   11.1088    9.2727 C.3     1  UNL1        0.0000
     86 H          11.0982   11.2963    9.3520 H       1  UNL1        0.0000
     87 H           9.5127   11.9295    9.7696 H       1  UNL1        0.0000
     88 H           9.7454   11.1262    8.2241 H       1  UNL1        0.0000
     89 C           9.8964    9.8840   11.4482 C.3     1  UNL1        0.0000
     90 H           9.8879    8.8836   11.8867 H       1  UNL1        0.0000
     91 H           9.1159   10.4720   11.9289 H       1  UNL1        0.0000
     92 H          10.8506   10.3574   11.6657 H       1  UNL1        0.0000
     93 C          10.7742    8.2413    7.4598 C.3     1  UNL1        0.0000
     94 C           9.4213    8.4816    6.7879 C.3     1  UNL1        0.0000
     95 H           8.6553    7.8296    7.1975 H       1  UNL1        0.0000
     96 H           9.5054    8.2648    5.7228 H       1  UNL1        0.0000
     97 H           9.1016    9.5159    6.8866 H       1  UNL1        0.0000
     98 C          11.7995    9.2195    6.8872 C.3     1  UNL1        0.0000
     99 H          11.5796   10.2484    7.1587 H       1  UNL1        0.0000
    100 H          11.7831    9.1507    5.7995 H       1  UNL1        0.0000
    101 H          12.8024    8.9672    7.2174 H       1  UNL1        0.0000
    102 C          11.2222    6.8104    7.1379 C.3     1  UNL1        0.0000
    103 H          12.2398    6.6320    7.4764 H       1  UNL1        0.0000
    104 H          11.1851    6.6357    6.0632 H       1  UNL1        0.0000
    105 H          10.5668    6.0828    7.6262 H       1  UNL1        0.0000
    106 C           8.5646    6.4103    9.4963 C.3     1  UNL1        0.0000
@<TRIPOS>BOND
     1    96    94    1
     2   100    98    1
     3    32    29    1
     4    30    29    1
     5   104   102    1
     6    29    31    1
     7    29    28    1
     8    94    97    1
     9    94    95    1
    10    94    93    1
    11    98    99    1
    12    98   101    1
    13    98    93    1
    14    39    37    1
    15    38    37    1
    16   102    93    1
    17   102   103    1
    18   102   105    1
    19    93     2    1
    20    37    28    1
    21    37    40    1
    22    28    10    1
    23    28    33    1
    24    36    33    1
    25    88    85    1
    26    10     8   ar
    27    10    11   ar
    28     9     8    1
    29    33    35    1
    30    33    34    1
    31    82    81    1
    32     4   106    1
    33    12    11    1
    34     8     7   ar
    35    56    55    1
    36    57    55    1
    37    11    13   ar
    38    85    86    1
    39    85    87    1
    40    85    80    1
    41     2    25    1
    42     2    80    1
    43     2     1    1
    44    26    25    1
    45   106     1    1
    46    45    42    1
    47     7    25    1
    48     7     6   ar
    49    55    58    1
    50    55    54    1
    51    61    59    1
    52    13     6   ar
    53    13    14   ar
    54    81    80    1
    55    81    83    1
    56    81    84    1
    57    62    59    1
    58    43    42    1
    59    25    27    1
    60    80    89    1
    61     6     5   ar
    62    16    15    1
    63    42    44    1
    64    42    41    1
    65     1     5    1
    66     1     3    1
    67    59    54    1
    68    59    60    1
    69    14    15   ar
    70    14    21   ar
    71    15    17   ar
    72     5    21   ar
    73    54     3    1
    74    54    63    1
    75    21    20   ar
    76    65    63    1
    77    17    41    1
    78    17    18   ar
    79    89    92    1
    80    89    90    1
    81    89    91    1
    82    47    46    1
    83    71    68    1
    84    41    46    1
    85    41    50    1
    86    69    68    1
    87     3    22    1
    88     3    67    1
    89    63    64    1
    90    63    66    1
    91    20    18   ar
    92    20    22    1
    93    18    19    1
    94    53    50    1
    95    46    48    1
    96    46    49    1
    97    68    67    1
    98    68    70    1
    99    50    52    1
   100    50    51    1
   101    22    23    1
   102    22    24    1
   103    67    76    1
   104    67    72    1
   105    79    76    1
   106    73    72    1
   107    76    78    1
   108    76    77    1
   109    72    75    1
   110    72    74    1
