@<TRIPOS>MOLECULE
CSD_code = CEYYOV | q = 1 | S = 0 | Stoichiometry = C12H16CoN6O4(1+) | MND = 6
 39 44 0 0 0
SMALL
GASTEIGER

@<TRIPOS>ATOM
      1 CO          0.9007    4.3001    0.4841 Co.oh   1  UNL1        0.0000
      2 O          -0.5726    3.1800    0.2763 O.3     1  UNL1        0.0000
      3 O          -2.0215    1.8967    1.3613 O.2     1  UNL1        0.0000
      4 O           0.6134    5.2004   -1.1121 O.3     1  UNL1        0.0000
      5 O           1.4311    5.5566   -3.1380 O.2     1  UNL1        0.0000
      6 N           1.1363    3.2880    2.1890 N.4     1  UNL1        0.0000
      7 N          -0.2750    5.5236    1.3687 N.pl3   1  UNL1        0.0000
      8 N          -1.8350    7.0477    1.4483 N.pl3   1  UNL1        0.0000
      9 N           2.4897    5.3986    0.6676 N.pl3   1  UNL1        0.0000
     10 N           3.7762    7.0872    1.1998 N.pl3   1  UNL1        0.0000
     11 N           1.8595    3.0260   -0.6808 N.4     1  UNL1        0.0000
     12 C          -1.0534    2.6067    1.3161 C.2     1  UNL1        0.0000
     13 C          -0.2280    2.9133    2.6183 C.3     1  UNL1        0.0000
     14 C          -0.8892    4.0786    3.3475 C.3     1  UNL1        0.0000
     15 C          -1.0888    5.2477    2.4385 C.2     1  UNL1        0.0000
     16 C          -2.0650    6.2024    2.4908 C.2     1  UNL1        0.0000
     17 C          -0.7600    6.6098    0.7894 C.3     1  UNL1        0.0000
     18 C           1.4024    4.9589   -2.0947 C.2     1  UNL1        0.0000
     19 C           2.4266    3.8192   -1.7829 C.3     1  UNL1        0.0000
     20 C           3.7347    4.4701   -1.3400 C.3     1  UNL1        0.0000
     21 C           3.5335    5.4420   -0.2220 C.2     1  UNL1        0.0000
     22 C           4.3377    6.4975    0.1100 C.2     1  UNL1        0.0000
     23 C           2.6666    6.4061    1.5056 C.3     1  UNL1        0.0000
     24 H           1.6664    2.4289    2.0378 H       1  UNL1        0.0000
     25 H          -0.2238    2.0286    3.2631 H       1  UNL1        0.0000
     26 H          -1.8620    3.7541    3.7193 H       1  UNL1        0.0000
     27 H           4.1311    7.9026    1.6762 H       1  UNL1        0.0000
     28 H          -0.3607    7.0565   -0.0994 H       1  UNL1        0.0000
     29 H           2.5975    3.2152   -2.6804 H       1  UNL1        0.0000
     30 H           4.1666    5.0021   -2.1892 H       1  UNL1        0.0000
     31 H           5.2373    6.8540   -0.3462 H       1  UNL1        0.0000
     32 H           2.0179    6.6557    2.3214 H       1  UNL1        0.0000
     33 H           1.6031    3.7797    2.9535 H       1  UNL1        0.0000
     34 H          -0.2844    4.3731    4.2135 H       1  UNL1        0.0000
     35 H          -2.8809    6.3236    3.1721 H       1  UNL1        0.0000
     36 H           1.0911    2.4606   -1.0570 H       1  UNL1        0.0000
     37 H           4.4529    3.7016   -1.0319 H       1  UNL1        0.0000
     38 H          -2.4072    7.8386    1.1925 H       1  UNL1        0.0000
     39 H           2.5678    2.3762   -0.3329 H       1  UNL1        0.0000
@<TRIPOS>BOND
     1     5    18    2
     2    29    19    1
     3    30    20    1
     4    18    19    1
     5    18     4    1
     6    19    20    1
     7    19    11    1
     8    20    37    1
     9    20    21    1
    10     4     1    1
    11    36    11    1
    12    11    39    1
    13    11     1    1
    14    31    22    1
    15    21    22    2
    16    21     9    1
    17    28    17    1
    18    22    10    1
    19     2     1    1
    20     2    12    1
    21     1     9    1
    22     1     7    1
    23     1     6    1
    24     9    23    1
    25    17     7    1
    26    17     8    1
    27    38     8    1
    28    10    23    1
    29    10    27    1
    30    12     3    2
    31    12    13    1
    32     7    15    1
    33     8    16    1
    34    23    32    1
    35    24     6    1
    36     6    13    1
    37     6    33    1
    38    15    16    2
    39    15    14    1
    40    16    35    1
    41    13    25    1
    42    13    14    1
    43    14    26    1
    44    14    34    1
