@<TRIPOS>MOLECULE
CSD_code = CIFPIQ | q = 1 | S = 0 | Stoichiometry = C8H16ClCoN5O2(1+) | MND = 6
 33 36 0 0 0
SMALL
GASTEIGER

@<TRIPOS>ATOM
      1 CO          1.4767    2.2685   -0.3219 Co.oh   1  UNL1        0.0000
      2 CL          1.1669    4.4165   -0.4169 Cl      1  UNL1        0.0000
      3 O           1.7709    0.4162   -0.1793 O.3     1  UNL1        0.0000
      4 O           2.9893   -1.2424   -1.0011 O.2     1  UNL1        0.0000
      5 N           0.6415    2.0502   -2.0295 N.pl3   1  UNL1        0.0000
      6 N          -0.8341    2.1105   -3.6405 N.pl3   1  UNL1        0.0000
      7 N           3.1760    2.3101   -1.2804 N.4     1  UNL1        0.0000
      8 N           2.3389    2.4985    1.4561 N.4     1  UNL1        0.0000
      9 N          -0.1728    2.0192    0.7269 N.4     1  UNL1        0.0000
     10 C          -0.5741    2.4441   -2.3737 C.3     1  UNL1        0.0000
     11 C           0.2611    1.4782   -4.1392 C.2     1  UNL1        0.0000
     12 C           1.1882    1.4465   -3.1327 C.2     1  UNL1        0.0000
     13 C           2.5881    0.9271   -3.2283 C.3     1  UNL1        0.0000
     14 C           3.3262    0.9749   -1.8947 C.3     1  UNL1        0.0000
     15 C           2.6649   -0.0866   -0.9455 C.2     1  UNL1        0.0000
     16 C           1.4383    1.9745    2.4950 C.3     1  UNL1        0.0000
     17 C           0.0438    2.4465    2.1190 C.3     1  UNL1        0.0000
     18 H          -1.2508    3.0016   -1.7580 H       1  UNL1        0.0000
     19 H          -1.6864    2.3017   -4.1458 H       1  UNL1        0.0000
     20 H           0.3146    1.1037   -5.1398 H       1  UNL1        0.0000
     21 H           3.1252    1.5181   -3.9781 H       1  UNL1        0.0000
     22 H           2.5723   -0.1068   -3.5816 H       1  UNL1        0.0000
     23 H           4.3769    0.7108   -2.0492 H       1  UNL1        0.0000
     24 H           3.9781    2.4977   -0.6764 H       1  UNL1        0.0000
     25 H           3.1992    3.0334   -2.0053 H       1  UNL1        0.0000
     26 H           2.4393    3.5096    1.5884 H       1  UNL1        0.0000
     27 H           3.2584    2.0755    1.5828 H       1  UNL1        0.0000
     28 H           1.4811    0.8830    2.4651 H       1  UNL1        0.0000
     29 H          -1.0238    2.4577    0.3789 H       1  UNL1        0.0000
     30 H          -0.0019    3.5381    2.1533 H       1  UNL1        0.0000
     31 H          -0.7132    2.0329    2.7912 H       1  UNL1        0.0000
     32 H          -0.3195    1.0058    0.7174 H       1  UNL1        0.0000
     33 H           1.7230    2.3200    3.4928 H       1  UNL1        0.0000
@<TRIPOS>BOND
     1    20    11    1
     2    19     6    1
     3    11     6    1
     4    11    12    2
     5    21    13    1
     6     6    10    1
     7    22    13    1
     8    13    12    1
     9    13    14    1
    10    12     5    1
    11    10     5    1
    12    10    18    1
    13    23    14    1
    14     5     1    1
    15    25     7    1
    16    14     7    1
    17    14    15    1
    18     7    24    1
    19     7     1    1
    20     4    15    2
    21    15     3    1
    22     2     1    1
    23     1     3    1
    24     1     9    1
    25     1     8    1
    26    29     9    1
    27    32     9    1
    28     9    17    1
    29     8    27    1
    30     8    26    1
    31     8    16    1
    32    17    30    1
    33    17    16    1
    34    17    31    1
    35    28    16    1
    36    16    33    1
