@<TRIPOS>MOLECULE
CSD_code = CIFTAO | q = 1 | S = 0 | Stoichiometry = C16H18CoN8O2(1+) | MND = 6
 45 50 0 0 0
SMALL
GASTEIGER

@<TRIPOS>ATOM
      1 CO          2.7097   10.2828    8.4803 Co.oh   1  UNL1        0.0000
      2 N           1.2482   10.9656    7.6501 N.pl3   1  UNL1        0.0000
      3 N           4.2012    9.5276    9.1851 N.pl3   1  UNL1        0.0000
      4 O           2.1128    8.6590    7.6995 O.2     1  UNL1        0.0000
      5 O           3.8465   10.5946    6.9927 O.2     1  UNL1        0.0000
      6 N           1.9020    9.7918   10.1150 N.pl3   1  UNL1        0.0000
      7 N           5.2770    9.5207    8.4254 N.2     1  UNL1        0.0000
      8 N           2.9893   12.0568    9.0639 N.pl3   1  UNL1        0.0000
      9 N           5.9696   10.1818    6.3400 N.pl3   1  UNL1        0.0000
     10 H           5.7637   10.5505    5.4276 H       1  UNL1        0.0000
     11 H           6.8540    9.7420    6.5212 H       1  UNL1        0.0000
     12 N           0.5216   10.1247    6.9435 N.2     1  UNL1        0.0000
     13 N           0.4684    7.9106    6.3433 N.pl3   1  UNL1        0.0000
     14 H          -0.3188    8.1143    5.7541 H       1  UNL1        0.0000
     15 H           0.8967    7.0012    6.3213 H       1  UNL1        0.0000
     16 C           4.0981    8.9654   10.3526 C.2     1  UNL1        0.0000
     17 C           2.7757    9.1161   10.9052 C.2     1  UNL1        0.0000
     18 C           4.9939   10.1032    7.2521 C.2     1  UNL1        0.0000
     19 C           1.0549   12.2488    7.7284 C.3     1  UNL1        0.0000
     20 C           3.9617   12.5615    9.8170 C.3     1  UNL1        0.0000
     21 H           4.6939   11.8654   10.2024 H       1  UNL1        0.0000
     22 C           1.0677    8.9028    7.0113 C.2     1  UNL1        0.0000
     23 C           2.0505   12.8916    8.5485 C.2     1  UNL1        0.0000
     24 C           1.0767    8.7936   12.5687 C.2     1  UNL1        0.0000
     25 H           0.7489    8.4061   13.5205 H       1  UNL1        0.0000
     26 C          -0.0536   12.9642    7.0328 C.3     1  UNL1        0.0000
     27 H          -0.6425   12.2378    6.4795 H       1  UNL1        0.0000
     28 H           0.3439   13.7020    6.3381 H       1  UNL1        0.0000
     29 H          -0.6941   13.4770    7.7488 H       1  UNL1        0.0000
     30 C           0.1947    9.4852   11.7459 C.2     1  UNL1        0.0000
     31 H          -0.8296    9.6488   12.0363 H       1  UNL1        0.0000
     32 C           0.6512    9.9632   10.5314 C.2     1  UNL1        0.0000
     33 H          -0.0156   10.4997    9.8705 H       1  UNL1        0.0000
     34 C           5.2131    8.2359   11.0227 C.3     1  UNL1        0.0000
     35 H           6.0895    8.2763   10.3817 H       1  UNL1        0.0000
     36 H           4.9432    7.1944   11.1892 H       1  UNL1        0.0000
     37 H           5.4493    8.6872   11.9852 H       1  UNL1        0.0000
     38 C           2.3763    8.6084   12.1451 C.2     1  UNL1        0.0000
     39 H           3.0887    8.0738   12.7513 H       1  UNL1        0.0000
     40 C           4.0600   13.9098   10.1073 C.2     1  UNL1        0.0000
     41 H           4.8690   14.2690   10.7211 H       1  UNL1        0.0000
     42 C           3.1053   14.7784    9.5902 C.2     1  UNL1        0.0000
     43 H           3.1574   15.8358    9.7968 H       1  UNL1        0.0000
     44 C           2.0934   14.2653    8.8058 C.2     1  UNL1        0.0000
     45 H           1.3374   14.9057    8.3827 H       1  UNL1        0.0000
@<TRIPOS>BOND
     1    10     9    1
     2    14    13    1
     3    15    13    1
     4    28    26    1
     5     9    11    1
     6     9    18    1
     7    13    22    1
     8    27    26    1
     9    12    22    2
    10    12     2    1
    11     5    18    1
    12     5     1    1
    13    22     4    1
    14    26    19    1
    15    26    29    1
    16    18     7    2
    17     2    19    1
    18     2     1    1
    19     4     1    1
    20    19    23    1
    21    45    44    1
    22     7     3    1
    23     1     8    1
    24     1     3    1
    25     1     6    1
    26    23    44    2
    27    23     8    1
    28    44    42    1
    29     8    20    1
    30     3    16    1
    31    42    43    1
    32    42    40    2
    33    20    40    1
    34    20    21    1
    35    33    32    1
    36    40    41    1
    37     6    32    1
    38     6    17    1
    39    16    17    2
    40    16    34    1
    41    35    34    1
    42    32    30    2
    43    17    38    1
    44    34    36    1
    45    34    37    1
    46    30    31    1
    47    30    24    1
    48    38    24    2
    49    38    39    1
    50    24    25    1
