@<TRIPOS>MOLECULE
CSD_code = CIHHEJ | q = 0 | S = 0 | Stoichiometry = C15H11CoN6O6 | MND = 6
 39 43 0 0 0
SMALL
GASTEIGER

@<TRIPOS>ATOM
      1 CO          3.8110    2.6396    8.0249 Co.oh   1  UNL1        0.0000
      2 N           3.1156    2.7958    6.0968 N.pl3   1  UNL1        0.0000
      3 N           5.2852    3.5885    7.2070 N.pl3   1  UNL1        0.0000
      4 N           5.0356    2.8594    9.6482 N.pl3   1  UNL1        0.0000
      5 N           4.6524    1.0376    7.5631 N.pl3   1  UNL1        0.0000
      6 N           2.9997    4.2527    8.4728 N.pl3   1  UNL1        0.0000
      7 N           2.4762    1.7376    8.7723 N.pl3   1  UNL1        0.0000
      8 C           1.9806    2.3394    5.5946 C.3     1  UNL1        0.0000
      9 C           1.5829    2.5839    4.2884 C.2     1  UNL1        0.0000
     10 C           2.4028    3.3441    3.4731 C.2     1  UNL1        0.0000
     11 C           3.5998    3.8097    3.9887 C.2     1  UNL1        0.0000
     12 C           3.9378    3.5126    5.3044 C.2     1  UNL1        0.0000
     13 C           5.2049    3.9175    5.9204 C.3     1  UNL1        0.0000
     14 C           6.2766    4.5399    5.2859 C.2     1  UNL1        0.0000
     15 C           7.4241    4.7898    6.0228 C.2     1  UNL1        0.0000
     16 C           7.4881    4.4273    7.3590 C.2     1  UNL1        0.0000
     17 C           6.3754    3.8191    7.9348 C.2     1  UNL1        0.0000
     18 C           6.2299    3.3994    9.3312 C.3     1  UNL1        0.0000
     19 C           7.2244    3.5697   10.2882 C.2     1  UNL1        0.0000
     20 C           6.9788    3.1941   11.5973 C.2     1  UNL1        0.0000
     21 C           5.7375    2.6701   11.9139 C.2     1  UNL1        0.0000
     22 C           4.7986    2.5194   10.9043 C.2     1  UNL1        0.0000
     23 O           5.8510    0.8974    7.7685 O.2     1  UNL1        0.0000
     24 O           3.9618    0.2088    6.9897 O.2     1  UNL1        0.0000
     25 O           2.9648    5.1548    7.6471 O.2     1  UNL1        0.0000
     26 O           2.5978    4.3670    9.6204 O.2     1  UNL1        0.0000
     27 O           1.3625    1.9381    8.3443 O.2     1  UNL1        0.0000
     28 O           2.7629    0.9723    9.6644 O.2     1  UNL1        0.0000
     29 H           1.3502    1.7677    6.2607 H       1  UNL1        0.0000
     30 H           0.6461    2.1889    3.9313 H       1  UNL1        0.0000
     31 H           2.1212    3.5689    2.4557 H       1  UNL1        0.0000
     32 H           4.2626    4.4018    3.3793 H       1  UNL1        0.0000
     33 H           6.2282    4.8137    4.2453 H       1  UNL1        0.0000
     34 H           8.2722    5.2642    5.5529 H       1  UNL1        0.0000
     35 H           8.3818    4.6140    7.9306 H       1  UNL1        0.0000
     36 H           8.1769    3.9908   10.0116 H       1  UNL1        0.0000
     37 H           7.7402    3.3146   12.3528 H       1  UNL1        0.0000
     38 H           5.4930    2.3746   12.9209 H       1  UNL1        0.0000
     39 H           3.8286    2.0955   11.1201 H       1  UNL1        0.0000
@<TRIPOS>BOND
     1    31    10    1
     2    32    11    1
     3    10    11    1
     4    10     9    2
     5    30     9    1
     6    11    12    2
     7    33    14    1
     8     9     8    1
     9    14    13    1
    10    14    15    2
    11    12    13    1
    12    12     2    1
    13    34    15    1
    14     8     2    1
    15     8    29    1
    16    13     3    1
    17    15    16    1
    18     2     1    1
    19    24     5    2
    20     3    17    1
    21     3     1    1
    22    16    35    1
    23    16    17    2
    24     5    23    2
    25     5     1    1
    26    25     6    2
    27    17    18    1
    28     1     6    1
    29     1     7    1
    30     1     4    1
    31    27     7    2
    32     6    26    2
    33     7    28    2
    34    18     4    1
    35    18    19    1
    36     4    22    1
    37    36    19    1
    38    19    20    2
    39    22    39    1
    40    22    21    2
    41    20    21    1
    42    20    37    1
    43    21    38    1
