@<TRIPOS>MOLECULE
CSD_code = CIJRUJ | q = 1 | S = 0 | Stoichiometry = C22H30CoN4O4(1+) | MND = 6
 61 66 0 0 0
SMALL
GASTEIGER

@<TRIPOS>ATOM
      1 CO          1.8723   -3.4388    1.1947 Co.oh   1  UNL1        0.0000
      2 O           0.3646   -4.5042    1.3265 O.3     1  UNL1        0.0000
      3 O           5.4397   -1.1742    2.6383 O.3     1  UNL1        0.0000
      4 O           2.4950   -4.4926   -0.1935 O.3     1  UNL1        0.0000
      5 O           0.8326    0.3318    3.3482 O.3     1  UNL1        0.0000
      6 N           1.1147   -2.3199   -0.1039 N.3     1  UNL1        0.0000
      7 N           3.5603   -2.2605    0.9833 N.4     1  UNL1        0.0000
      8 N           2.6492   -4.5135    2.5189 N.3     1  UNL1        0.0000
      9 N           1.1454   -2.3134    2.7709 N.4     1  UNL1        0.0000
     10 C          -0.5281   -4.6533    0.4043 C.ar    1  UNL1        0.0000
     11 C          -1.4104   -5.7546    0.5052 C.ar    1  UNL1        0.0000
     12 C          -2.4049   -5.9586   -0.4145 C.ar    1  UNL1        0.0000
     13 C          -2.5816   -5.0802   -1.4889 C.ar    1  UNL1        0.0000
     14 C          -1.7495   -4.0013   -1.6169 C.ar    1  UNL1        0.0000
     15 C          -0.7168   -3.7580   -0.6895 C.ar    1  UNL1        0.0000
     16 C           0.1185   -2.6260   -0.8616 C.3     1  UNL1        0.0000
     17 C           1.9001   -1.1358   -0.3704 C.3     1  UNL1        0.0000
     18 C           3.3671   -1.5442   -0.2848 C.3     1  UNL1        0.0000
     19 C           4.8942   -2.8694    1.0824 C.3     1  UNL1        0.0000
     20 C           5.9398   -1.8237    1.4821 C.3     1  UNL1        0.0000
     21 C           2.8064   -5.7433   -0.1013 C.ar    1  UNL1        0.0000
     22 C           2.9128   -6.4917   -1.2971 C.ar    1  UNL1        0.0000
     23 C           3.2759   -7.8125   -1.2821 C.ar    1  UNL1        0.0000
     24 C           3.5552   -8.4677   -0.0780 C.ar    1  UNL1        0.0000
     25 C           3.4648   -7.7752    1.0989 C.ar    1  UNL1        0.0000
     26 C           3.0947   -6.4156    1.1228 C.ar    1  UNL1        0.0000
     27 C           3.0124   -5.7403    2.3662 C.3     1  UNL1        0.0000
     28 C           2.6025   -3.9230    3.8378 C.3     1  UNL1        0.0000
     29 C           1.2737   -3.1827    3.9484 C.3     1  UNL1        0.0000
     30 C          -0.1843   -1.6951    2.6757 C.3     1  UNL1        0.0000
     31 C          -0.2908   -0.4901    3.6157 C.3     1  UNL1        0.0000
     32 H          -1.2675   -6.4309    1.3337 H       1  UNL1        0.0000
     33 H           6.1191   -0.5990    3.0028 H       1  UNL1        0.0000
     34 H           3.5520   -1.5623    1.7333 H       1  UNL1        0.0000
     35 H          -3.0570   -6.8128   -0.3123 H       1  UNL1        0.0000
     36 H           1.7771   -1.5182    2.9085 H       1  UNL1        0.0000
     37 H          -3.3657   -5.2577   -2.2072 H       1  UNL1        0.0000
     38 H           0.7434    1.1625    3.8251 H       1  UNL1        0.0000
     39 H          -1.8718   -3.3150   -2.4424 H       1  UNL1        0.0000
     40 H          -0.1309   -1.9642   -1.6928 H       1  UNL1        0.0000
     41 H           1.6719   -0.7128   -1.3547 H       1  UNL1        0.0000
     42 H           1.6820   -0.3780    0.3935 H       1  UNL1        0.0000
     43 H           3.5879   -2.2402   -1.0972 H       1  UNL1        0.0000
     44 H           4.0163   -0.6671   -0.3694 H       1  UNL1        0.0000
     45 H           4.8711   -3.6372    1.8568 H       1  UNL1        0.0000
     46 H           5.1582   -3.3427    0.1371 H       1  UNL1        0.0000
     47 H           6.0991   -1.0955    0.6760 H       1  UNL1        0.0000
     48 H           6.8915   -2.3242    1.6884 H       1  UNL1        0.0000
     49 H           2.6934   -5.9824   -2.2226 H       1  UNL1        0.0000
     50 H           3.3413   -8.3569   -2.2121 H       1  UNL1        0.0000
     51 H           3.8356   -9.5086   -0.0829 H       1  UNL1        0.0000
     52 H           3.6741   -8.2679    2.0374 H       1  UNL1        0.0000
     53 H           3.3022   -6.3148    3.2475 H       1  UNL1        0.0000
     54 H           3.4320   -3.2119    3.9451 H       1  UNL1        0.0000
     55 H           2.6909   -4.6814    4.6232 H       1  UNL1        0.0000
     56 H           1.2227   -2.6213    4.8864 H       1  UNL1        0.0000
     57 H           0.4599   -3.9106    3.9150 H       1  UNL1        0.0000
     58 H          -0.9544   -2.4328    2.8997 H       1  UNL1        0.0000
     59 H          -0.3330   -1.3421    1.6545 H       1  UNL1        0.0000
     60 H          -0.2886   -0.8069    4.6669 H       1  UNL1        0.0000
     61 H          -1.2272    0.0416    3.4173 H       1  UNL1        0.0000
@<TRIPOS>BOND
     1    39    14    1
     2    49    22    1
     3    50    23    1
     4    37    13    1
     5    40    16    1
     6    14    13   ar
     7    14    15   ar
     8    13    12   ar
     9    41    17    1
    10    22    23   ar
    11    22    21   ar
    12    23    24   ar
    13    43    18    1
    14    16    15    1
    15    16     6    1
    16    15    10   ar
    17    12    35    1
    18    12    11   ar
    19    17    18    1
    20    17     6    1
    21    17    42    1
    22    44    18    1
    23    18     7    1
    24     4    21    1
    25     4     1    1
    26     6     1    1
    27    21    26   ar
    28    51    24    1
    29    24    25   ar
    30    46    19    1
    31    10    11   ar
    32    10     2    1
    33    11    32    1
    34    47    20    1
    35     7    19    1
    36     7     1    1
    37     7    34    1
    38    19    20    1
    39    19    45    1
    40    25    26   ar
    41    25    52    1
    42    26    27    1
    43     1     2    1
    44     1     8    1
    45     1     9    1
    46    20    48    1
    47    20     3    1
    48    59    30    1
    49    27     8    1
    50    27    53    1
    51     8    28    1
    52     3    33    1
    53    30     9    1
    54    30    58    1
    55    30    31    1
    56     9    36    1
    57     9    29    1
    58     5    31    1
    59     5    38    1
    60    61    31    1
    61    31    60    1
    62    28    54    1
    63    28    29    1
    64    28    55    1
    65    57    29    1
    66    29    56    1
