@<TRIPOS>MOLECULE
CSD_code = CODLAK | q = 0 | S = 0 | Stoichiometry = C35H46BCoO2S3 | MND = 5
 88 94 0 0 0
SMALL
GASTEIGER

@<TRIPOS>ATOM
      1 CO          2.1484    1.1315    3.8438 Co.oh   1  UNL1        0.0000
      2 S           1.6010    1.5339    1.5934 S.3     1  UNL1        0.0000
      3 S           2.4916    3.4142    4.1494 S.3     1  UNL1        0.0000
      4 S           4.3918    0.7809    3.3079 S.3     1  UNL1        0.0000
      5 O           2.4714    0.2281    5.4213 O.3     1  UNL1        0.0000
      6 O           0.3620    0.9324    4.3307 O.3     1  UNL1        0.0000
      7 B           4.0181    3.1354    1.6554 B       1  UNL1        0.0000
      8 C           6.3160    4.2498    1.1080 C.ar    1  UNL1        0.0000
      9 H           6.7120    3.6952    1.9484 H       1  UNL1        0.0000
     10 C           7.1668    5.0869    0.4103 C.ar    1  UNL1        0.0000
     11 H           8.2049    5.1706    0.7038 H       1  UNL1        0.0000
     12 C           6.6918    5.8197   -0.6634 C.ar    1  UNL1        0.0000
     13 H           7.3516    6.4744   -1.2154 H       1  UNL1        0.0000
     14 C           5.3593    5.7069   -1.0154 C.ar    1  UNL1        0.0000
     15 H           4.9708    6.2798   -1.8469 H       1  UNL1        0.0000
     16 C           4.5196    4.8652   -0.3057 C.ar    1  UNL1        0.0000
     17 H           3.4819    4.8102   -0.6021 H       1  UNL1        0.0000
     18 C           4.9702    4.1025    0.7690 C.ar    1  UNL1        0.0000
     19 C           2.5101    3.0046    1.0174 C.3     1  UNL1        0.0000
     20 H           2.5494    2.8862   -0.0651 H       1  UNL1        0.0000
     21 H           1.9022    3.8751    1.2555 H       1  UNL1        0.0000
     22 C          -0.1882    1.9755    1.2866 C.3     1  UNL1        0.0000
     23 C          -0.6417    3.0632    2.2461 C.3     1  UNL1        0.0000
     24 H          -1.6923    3.2917    2.0727 H       1  UNL1        0.0000
     25 H          -0.0690    3.9779    2.1081 H       1  UNL1        0.0000
     26 H          -0.5182    2.7320    3.2734 H       1  UNL1        0.0000
     27 C          -0.3231    2.4232   -0.1642 C.3     1  UNL1        0.0000
     28 H          -1.3773    2.5464   -0.4074 H       1  UNL1        0.0000
     29 H           0.0988    1.6793   -0.8369 H       1  UNL1        0.0000
     30 H           0.1758    3.3731   -0.3373 H       1  UNL1        0.0000
     31 C          -0.9652    0.6832    1.5074 C.3     1  UNL1        0.0000
     32 H          -0.8149    0.3237    2.5215 H       1  UNL1        0.0000
     33 H          -0.6319   -0.0854    0.8132 H       1  UNL1        0.0000
     34 H          -2.0286    0.8554    1.3511 H       1  UNL1        0.0000
     35 C           3.9443    3.8444    3.1503 C.3     1  UNL1        0.0000
     36 H           3.8897    4.9277    3.0401 H       1  UNL1        0.0000
     37 H           4.8275    3.6009    3.7358 H       1  UNL1        0.0000
     38 C           3.0127    3.7822    5.9070 C.3     1  UNL1        0.0000
     39 C           3.4543    5.2401    5.9594 C.3     1  UNL1        0.0000
     40 H           3.6497    5.5225    6.9925 H       1  UNL1        0.0000
     41 H           2.6764    5.8914    5.5668 H       1  UNL1        0.0000
     42 H           4.3641    5.3993    5.3865 H       1  UNL1        0.0000
     43 C           4.1230    2.8503    6.3600 C.3     1  UNL1        0.0000
     44 H           4.3560    3.0424    7.4062 H       1  UNL1        0.0000
     45 H           5.0300    2.9988    5.7782 H       1  UNL1        0.0000
     46 H           3.8169    1.8120    6.2580 H       1  UNL1        0.0000
     47 C           1.7515    3.5803    6.7394 C.3     1  UNL1        0.0000
     48 H           1.4162    2.5475    6.6892 H       1  UNL1        0.0000
     49 H           0.9486    4.2200    6.3789 H       1  UNL1        0.0000
     50 H           1.9480    3.8228    7.7821 H       1  UNL1        0.0000
     51 C           4.6918    1.6281    1.7284 C.3     1  UNL1        0.0000
     52 H           5.7751    1.6578    1.6222 H       1  UNL1        0.0000
     53 H           4.2891    0.9991    0.9364 H       1  UNL1        0.0000
     54 C           4.5434   -1.0400    2.9198 C.3     1  UNL1        0.0000
     55 C           5.7780   -1.2678    2.0584 C.3     1  UNL1        0.0000
     56 H           5.9422   -2.3377    1.9390 H       1  UNL1        0.0000
     57 H           6.6585   -0.8371    2.5302 H       1  UNL1        0.0000
     58 H           5.6641   -0.8313    1.0696 H       1  UNL1        0.0000
     59 C           3.2785   -1.5153    2.2230 C.3     1  UNL1        0.0000
     60 H           3.1484   -1.0205    1.2623 H       1  UNL1        0.0000
     61 H           2.4027   -1.3014    2.8429 H       1  UNL1        0.0000
     62 H           3.3246   -2.5900    2.0527 H       1  UNL1        0.0000
     63 C           4.7121   -1.7222    4.2724 C.3     1  UNL1        0.0000
     64 H           3.8741   -1.4837    4.9220 H       1  UNL1        0.0000
     65 H           5.6275   -1.3865    4.7546 H       1  UNL1        0.0000
     66 H           4.7595   -2.8022    4.1458 H       1  UNL1        0.0000
     67 C           1.4058    0.0601    6.1530 C.ar    1  UNL1        0.0000
     68 C           1.4149   -0.4340    7.4957 C.ar    1  UNL1        0.0000
     69 C           2.6161   -0.8157    8.1077 C.ar    1  UNL1        0.0000
     70 H           3.5307   -0.7163    7.5421 H       1  UNL1        0.0000
     71 C           2.6230   -1.3010    9.3914 C.ar    1  UNL1        0.0000
     72 H           3.5499   -1.5932    9.8622 H       1  UNL1        0.0000
     73 C           1.4205   -1.4145   10.0850 C.ar    1  UNL1        0.0000
     74 H           1.4186   -1.7980   11.0949 H       1  UNL1        0.0000
     75 C           0.2330   -1.0416    9.4962 C.ar    1  UNL1        0.0000
     76 H          -0.6749   -1.1455   10.0689 H       1  UNL1        0.0000
     77 C           0.1845   -0.5387    8.1894 C.ar    1  UNL1        0.0000
     78 C          -1.0523   -0.1307    7.5487 C.ar    1  UNL1        0.0000
     79 C          -2.2979   -0.2148    8.1848 C.ar    1  UNL1        0.0000
     80 H          -2.3658   -0.6018    9.1892 H       1  UNL1        0.0000
     81 C          -3.4584    0.1844    7.5611 C.ar    1  UNL1        0.0000
     82 H          -4.4006    0.1042    8.0835 H       1  UNL1        0.0000
     83 C          -3.4283    0.6906    6.2640 C.ar    1  UNL1        0.0000
     84 H          -4.3431    1.0038    5.7832 H       1  UNL1        0.0000
     85 C          -2.2273    0.7855    5.6065 C.ar    1  UNL1        0.0000
     86 H          -2.1708    1.1714    4.5999 H       1  UNL1        0.0000
     87 C          -1.0384    0.3813    6.2278 C.ar    1  UNL1        0.0000
     88 C           0.2115    0.4621    5.5343 C.ar    1  UNL1        0.0000
@<TRIPOS>BOND
     1    15    14    1
     2    13    12    1
     3    14    12   ar
     4    14    16   ar
     5    29    27    1
     6    12    10   ar
     7    17    16    1
     8    28    27    1
     9    30    27    1
    10    16    18   ar
    11    27    22    1
    12    20    19    1
    13    10    11    1
    14    10     8   ar
    15    18     8   ar
    16    18     7    1
    17    33    31    1
    18    53    51    1
    19    19    21    1
    20    19     2    1
    21    19     7    1
    22    58    55    1
    23     8     9    1
    24    60    59    1
    25    22    31    1
    26    22     2    1
    27    22    23    1
    28    34    31    1
    29    31    32    1
    30     2     1    1
    31    52    51    1
    32     7    51    1
    33     7    35    1
    34    51     4    1
    35    56    55    1
    36    62    59    1
    37    55    57    1
    38    55    54    1
    39    24    23    1
    40    25    23    1
    41    59    61    1
    42    59    54    1
    43    23    26    1
    44    54     4    1
    45    54    63    1
    46    36    35    1
    47    35    37    1
    48    35     3    1
    49     4     1    1
    50     1     3    1
    51     1     6    1
    52     1     5    1
    53    66    63    1
    54     3    38    1
    55    63    65    1
    56    63    64    1
    57     6    88    1
    58    86    85    1
    59    42    39    1
    60     5    67    1
    61    88    67   ar
    62    88    87   ar
    63    41    39    1
    64    85    87   ar
    65    85    83   ar
    66    45    43    1
    67    84    83    1
    68    38    39    1
    69    38    43    1
    70    38    47    1
    71    39    40    1
    72    67    68   ar
    73    87    78   ar
    74    46    43    1
    75    83    81   ar
    76    43    44    1
    77    49    47    1
    78    48    47    1
    79    47    50    1
    80    68    69   ar
    81    68    77   ar
    82    70    69    1
    83    78    79   ar
    84    78    77   ar
    85    81    82    1
    86    81    79   ar
    87    69    71   ar
    88    79    80    1
    89    77    75   ar
    90    71    72    1
    91    71    73   ar
    92    75    76    1
    93    75    73   ar
    94    73    74    1
