@<TRIPOS>MOLECULE
CSD_code = COLVAB | q = 0 | S = 0 | Stoichiometry = C16H14CoN13 | MND = 6
 44 48 0 0 0
SMALL
GASTEIGER

@<TRIPOS>ATOM
      1 CO          4.1574    4.3075    3.9487 Co.oh   1  UNL1        0.0000
      2 C           3.9775    2.3966    6.1209 C.3     1  UNL1        0.0000
      3 H           4.7333    3.0438    6.5401 H       1  UNL1        0.0000
      4 C           3.4479    1.3559    6.8602 C.2     1  UNL1        0.0000
      5 H           3.7824    1.1924    7.8714 H       1  UNL1        0.0000
      6 C           2.4763    0.5558    6.2817 C.2     1  UNL1        0.0000
      7 H           2.0123   -0.2466    6.8342 H       1  UNL1        0.0000
      8 C           2.1125    0.8023    4.9682 C.2     1  UNL1        0.0000
      9 H           1.3552    0.2105    4.4821 H       1  UNL1        0.0000
     10 C           2.7196    1.8464    4.2852 C.2     1  UNL1        0.0000
     11 C           2.3633    2.1468    2.8332 C.3     1  UNL1        0.0000
     12 C           1.6257    3.4820    2.8708 C.3     1  UNL1        0.0000
     13 C           0.2912    3.5688    2.5014 C.2     1  UNL1        0.0000
     14 H          -0.2395    2.6858    2.1882 H       1  UNL1        0.0000
     15 C          -0.3500    4.7944    2.5714 C.2     1  UNL1        0.0000
     16 H          -1.3868    4.8841    2.2858 H       1  UNL1        0.0000
     17 C           0.3657    5.8896    3.0250 C.2     1  UNL1        0.0000
     18 H          -0.0865    6.8647    3.1020 H       1  UNL1        0.0000
     19 C           1.6835    5.7117    3.4019 C.2     1  UNL1        0.0000
     20 H           2.2567    6.5370    3.7959 H       1  UNL1        0.0000
     21 C           3.6543    2.2994    2.0174 C.3     1  UNL1        0.0000
     22 C           3.9160    1.4638    0.9396 C.2     1  UNL1        0.0000
     23 H           3.2276    0.6814    0.6589 H       1  UNL1        0.0000
     24 C           5.0803    1.6310    0.2072 C.2     1  UNL1        0.0000
     25 H           5.2947    0.9830   -0.6286 H       1  UNL1        0.0000
     26 C           5.9459    2.6479    0.5703 C.2     1  UNL1        0.0000
     27 H           6.8586    2.8307    0.0277 H       1  UNL1        0.0000
     28 C           5.6194    3.4366    1.6565 C.2     1  UNL1        0.0000
     29 H           6.2627    4.2491    1.9582 H       1  UNL1        0.0000
     30 H           1.2298    1.3076    1.3612 H       1  UNL1        0.0000
     31 H           1.9342    0.2101    2.3633 H       1  UNL1        0.0000
     32 N           3.6048    2.6546    4.8682 N.pl3   1  UNL1        0.0000
     33 N           2.3046    4.5356    3.3260 N.pl3   1  UNL1        0.0000
     34 N           4.5091    3.2609    2.3737 N.pl3   1  UNL1        0.0000
     35 N           1.4813    1.1159    2.3241 N.3     1  UNL1        0.0000
     36 N           5.8780    4.0178    4.5871 N.2     1  UNL1        0.0000
     37 N           6.9045    4.5646    4.4309 N.2     1  UNL1        0.0000
     38 N           7.9668    4.9504    4.3499 N.2     1  UNL1        0.0000
     39 N           4.6989    5.8232    3.0208 N.2     1  UNL1        0.0000
     40 N           4.6651    6.9722    3.2550 N.2     1  UNL1        0.0000
     41 N           4.6649    8.1038    3.3136 N.2     1  UNL1        0.0000
     42 N           3.7106    5.3147    5.4458 N.2     1  UNL1        0.0000
     43 N           4.2410    5.5523    6.4646 N.2     1  UNL1        0.0000
     44 N           4.6046    5.8327    7.5007 N.2     1  UNL1        0.0000
@<TRIPOS>BOND
     1    25    24    1
     2    27    26    1
     3    24    26    1
     4    24    22    2
     5    26    28    2
     6    23    22    1
     7    22    21    1
     8    30    35    1
     9    28    29    1
    10    28    34    1
    11    21    34    1
    12    21    11    1
    13    14    13    1
    14    16    15    1
    15    35    31    1
    16    35    11    1
    17    34     1    1
    18    13    15    2
    19    13    12    1
    20    15    17    1
    21    11    12    1
    22    11    10    1
    23    12    33    1
    24    39    40    2
    25    39     1    1
    26    17    18    1
    27    17    19    2
    28    40    41    2
    29    33    19    1
    30    33     1    1
    31    19    20    1
    32     1    36    1
    33     1    32    1
    34     1    42    1
    35    10    32    1
    36    10     8    2
    37    38    37    2
    38    37    36    2
    39     9     8    1
    40    32     2    1
    41     8     6    1
    42    42    43    2
    43     2     3    1
    44     2     4    1
    45     6     7    1
    46     6     4    2
    47    43    44    2
    48     4     5    1
