@<TRIPOS>MOLECULE
CSD_code = CUBXED | q = -1 | S = 0 | Stoichiometry = C26H18CoN2O4(1-) | MND = 6
 51 58 0 0 0
SMALL
GASTEIGER

@<TRIPOS>ATOM
      1 CO         -0.9673    1.1791    3.8544 Co.oh   1  UNL1        0.0000
      2 C           0.1502   -3.3592    5.6606 C.ar    1  UNL1        0.0000
      3 H           0.1159   -4.1963    6.3462 H       1  UNL1        0.0000
      4 C          -0.6068   -2.2389    5.9155 C.ar    1  UNL1        0.0000
      5 H          -1.2379   -2.1764    6.7898 H       1  UNL1        0.0000
      6 C           0.4126    4.6120    7.2333 C.ar    1  UNL1        0.0000
      7 H           1.0863    5.1675    7.8734 H       1  UNL1        0.0000
      8 C           0.8672    0.0721    2.0046 C.3     1  UNL1        0.0000
      9 H           1.5250   -0.7300    1.6668 H       1  UNL1        0.0000
     10 C           0.9065    3.6061    6.4349 C.ar    1  UNL1        0.0000
     11 H           1.9577    3.3579    6.4329 H       1  UNL1        0.0000
     12 C           0.9608   -3.4320    4.5320 C.ar    1  UNL1        0.0000
     13 H           1.5495   -4.3198    4.3457 H       1  UNL1        0.0000
     14 C          -6.3573    1.2580    2.8058 C.ar    1  UNL1        0.0000
     15 H          -7.4190    1.4609    2.7769 H       1  UNL1        0.0000
     16 C           0.8347    3.4186   -0.5606 C.ar    1  UNL1        0.0000
     17 H           0.8390    4.2684   -1.2314 H       1  UNL1        0.0000
     18 C          -4.4663    0.0015    2.0198 C.ar    1  UNL1        0.0000
     19 H          -4.0352   -0.7645    1.3914 H       1  UNL1        0.0000
     20 C          -1.8152    4.2282    6.4178 C.ar    1  UNL1        0.0000
     21 H          -2.8640    4.4912    6.4280 H       1  UNL1        0.0000
     22 C          -0.9425    4.9276    7.2287 C.ar    1  UNL1        0.0000
     23 H          -1.3146    5.7224    7.8607 H       1  UNL1        0.0000
     24 C          -5.8088    0.2658    1.9883 C.ar    1  UNL1        0.0000
     25 H          -6.4537   -0.2971    1.3255 H       1  UNL1        0.0000
     26 C          -5.5314    1.9668    3.6403 C.ar    1  UNL1        0.0000
     27 H          -5.9458    2.7391    4.2773 H       1  UNL1        0.0000
     28 C          -3.3572    2.5080    4.5853 C.3     1  UNL1        0.0000
     29 H          -3.9048    3.2452    5.1741 H       1  UNL1        0.0000
     30 C           1.6190    2.3007   -0.8584 C.ar    1  UNL1        0.0000
     31 H           2.2257    2.2849   -1.7532 H       1  UNL1        0.0000
     32 C          -1.3423    3.2040    5.6018 C.ar    1  UNL1        0.0000
     33 C          -4.1480    1.7283    3.7001 C.ar    1  UNL1        0.0000
     34 C           1.0159   -2.3722    3.6475 C.ar    1  UNL1        0.0000
     35 H           1.6523   -2.4500    2.7767 H       1  UNL1        0.0000
     36 C           0.2606   -1.2264    3.8817 C.ar    1  UNL1        0.0000
     37 C           1.6065    1.2299   -0.0017 C.ar    1  UNL1        0.0000
     38 H           2.2106    0.3581   -0.2227 H       1  UNL1        0.0000
     39 C           0.0633    3.4468    0.5697 C.ar    1  UNL1        0.0000
     40 H          -0.5454    4.3076    0.8064 H       1  UNL1        0.0000
     41 C          -3.5766    0.7112    2.8702 C.ar    1  UNL1        0.0000
     42 C           0.0427    2.8758    5.5967 C.ar    1  UNL1        0.0000
     43 C           0.0200    2.3585    1.4820 C.ar    1  UNL1        0.0000
     44 C           0.8278    1.2188    1.1679 C.ar    1  UNL1        0.0000
     45 C          -0.5721   -1.1425    5.0330 C.ar    1  UNL1        0.0000
     46 N           0.1964   -0.0813    3.1034 N.pl3   1  UNL1        0.0000
     47 N          -2.0730    2.4084    4.7334 N.pl3   1  UNL1        0.0000
     48 O          -1.2624   -0.0697    5.2254 O.3     1  UNL1        0.0000
     49 O          -2.3345    0.4005    2.8448 O.3     1  UNL1        0.0000
     50 O           0.4546    1.9253    4.8277 O.3     1  UNL1        0.0000
     51 O          -0.7277    2.4622    2.5164 O.3     1  UNL1        0.0000
@<TRIPOS>BOND
     1    31    30    1
     2    17    16    1
     3    30    16   ar
     4    30    37   ar
     5    16    39   ar
     6    38    37    1
     7    37    44   ar
     8    39    40    1
     9    39    43   ar
    10    44    43   ar
    11    44     8    1
    12    25    24    1
    13    19    18    1
    14    43    51    1
    15     9     8    1
    16    24    18   ar
    17    24    14   ar
    18     8    46    1
    19    18    41   ar
    20    51     1    1
    21    35    34    1
    22    15    14    1
    23    14    26   ar
    24    49    41    1
    25    49     1    1
    26    41    33   ar
    27    46     1    1
    28    46    36    1
    29    26    33   ar
    30    26    27    1
    31    34    36   ar
    32    34    12   ar
    33    33    28    1
    34     1    47    1
    35     1    50    1
    36     1    48    1
    37    36    45   ar
    38    13    12    1
    39    12     2   ar
    40    28    47    1
    41    28    29    1
    42    47    32    1
    43    50    42    1
    44    45    48    1
    45    45     4   ar
    46    42    32   ar
    47    42    10   ar
    48    32    20   ar
    49     2     4   ar
    50     2     3    1
    51     4     5    1
    52    20    21    1
    53    20    22   ar
    54    11    10    1
    55    10     6   ar
    56    22     6   ar
    57    22    23    1
    58     6     7    1
