@<TRIPOS>MOLECULE
CSD_code = CUWSIW | q = 0 | S = 0 | Stoichiometry = C42H42BrCoNP3 | MND = 4
 90 97 0 0 0
SMALL
GASTEIGER

@<TRIPOS>ATOM
      1 CO          5.0842    1.9457    5.5092 Co.oh   1  UNL1        0.0000
      2 BR          5.0785    3.3304    7.3699 Br      1  UNL1        0.0000
      3 P           4.1978    0.2263    6.5494 P.3     1  UNL1        0.0000
      4 P           7.1400    2.4088    4.8581 P.3     1  UNL1        0.0000
      5 P           4.0577    1.7206    3.5800 P.3     1  UNL1        0.0000
      6 N           5.9685   -0.3775    3.9809 N.3     1  UNL1        0.0000
      7 C           5.7147   -1.4525    4.9294 C.3     1  UNL1        0.0000
      8 C           4.3276   -1.3347    5.5558 C.3     1  UNL1        0.0000
      9 C           7.3890   -0.1419    3.7623 C.3     1  UNL1        0.0000
     10 C           7.9860    0.7578    4.8370 C.3     1  UNL1        0.0000
     11 C           5.2628   -0.5668    2.7200 C.3     1  UNL1        0.0000
     12 C           4.8159    0.7883    2.1771 C.3     1  UNL1        0.0000
     13 C           5.1554   -0.3230    8.0143 C.ar    1  UNL1        0.0000
     14 C           6.3946    0.2380    8.2923 C.ar    1  UNL1        0.0000
     15 C           7.1470   -0.2112    9.3630 C.ar    1  UNL1        0.0000
     16 C           6.6634   -1.2266   10.1690 C.ar    1  UNL1        0.0000
     17 C           5.4233   -1.7866    9.9039 C.ar    1  UNL1        0.0000
     18 C           4.6725   -1.3403    8.8331 C.ar    1  UNL1        0.0000
     19 C           2.5182    0.1039    7.2452 C.ar    1  UNL1        0.0000
     20 C           2.2073    1.0307    8.2398 C.ar    1  UNL1        0.0000
     21 C           0.9521    1.0441    8.8158 C.ar    1  UNL1        0.0000
     22 C          -0.0095    0.1349    8.4040 C.ar    1  UNL1        0.0000
     23 C           0.2900   -0.7807    7.4100 C.ar    1  UNL1        0.0000
     24 C           1.5447   -0.7958    6.8266 C.ar    1  UNL1        0.0000
     25 C           7.6616    3.1333    3.2560 C.ar    1  UNL1        0.0000
     26 C           6.8407    4.1275    2.7329 C.ar    1  UNL1        0.0000
     27 C           7.1393    4.7382    1.5293 C.ar    1  UNL1        0.0000
     28 C           8.2720    4.3590    0.8294 C.ar    1  UNL1        0.0000
     29 C           9.1058    3.3823    1.3493 C.ar    1  UNL1        0.0000
     30 C           8.8084    2.7745    2.5561 C.ar    1  UNL1        0.0000
     31 C           8.2468    3.3648    5.9542 C.ar    1  UNL1        0.0000
     32 C           8.1427    4.7525    5.9000 C.ar    1  UNL1        0.0000
     33 C           8.8893    5.5461    6.7474 C.ar    1  UNL1        0.0000
     34 C           9.7421    4.9631    7.6706 C.ar    1  UNL1        0.0000
     35 C           9.8368    3.5850    7.7434 C.ar    1  UNL1        0.0000
     36 C           9.0909    2.7858    6.8947 C.ar    1  UNL1        0.0000
     37 C           3.6250    3.3247    2.8126 C.ar    1  UNL1        0.0000
     38 C           3.5002    4.4045    3.6838 C.ar    1  UNL1        0.0000
     39 C           3.1470    5.6541    3.2111 C.ar    1  UNL1        0.0000
     40 C           2.9204    5.8381    1.8569 C.ar    1  UNL1        0.0000
     41 C           3.0434    4.7693    0.9847 C.ar    1  UNL1        0.0000
     42 C           3.3882    3.5150    1.4570 C.ar    1  UNL1        0.0000
     43 C           2.3414    1.0927    3.6734 C.ar    1  UNL1        0.0000
     44 C           1.5626    1.6976    4.6586 C.ar    1  UNL1        0.0000
     45 C           0.2398    1.3451    4.8305 C.ar    1  UNL1        0.0000
     46 C          -0.3197    0.3624    4.0293 C.ar    1  UNL1        0.0000
     47 C           0.4492   -0.2538    3.0576 C.ar    1  UNL1        0.0000
     48 C           1.7722    0.1117    2.8716 C.ar    1  UNL1        0.0000
     49 H           5.8266   -2.4415    4.4475 H       1  UNL1        0.0000
     50 H           6.4571   -1.3904    5.7299 H       1  UNL1        0.0000
     51 H           3.5593   -1.2995    4.7803 H       1  UNL1        0.0000
     52 H           4.1424   -2.1989    6.1998 H       1  UNL1        0.0000
     53 H           7.9449   -1.0958    3.7223 H       1  UNL1        0.0000
     54 H           7.5078    0.3520    2.7944 H       1  UNL1        0.0000
     55 H           7.8344    0.3023    5.8182 H       1  UNL1        0.0000
     56 H           9.0609    0.8791    4.6798 H       1  UNL1        0.0000
     57 H           5.8872   -1.1003    1.9837 H       1  UNL1        0.0000
     58 H           4.3797   -1.1817    2.9015 H       1  UNL1        0.0000
     59 H           5.6767    1.3794    1.8470 H       1  UNL1        0.0000
     60 H           4.1363    0.6652    1.3321 H       1  UNL1        0.0000
     61 H           6.7620    1.0540    7.6841 H       1  UNL1        0.0000
     62 H           8.1061    0.2397    9.5728 H       1  UNL1        0.0000
     63 H           7.2457   -1.5766   11.0088 H       1  UNL1        0.0000
     64 H           5.0387   -2.5719   10.5389 H       1  UNL1        0.0000
     65 H           3.6996   -1.7719    8.6388 H       1  UNL1        0.0000
     66 H           2.9577    1.7442    8.5523 H       1  UNL1        0.0000
     67 H           0.7223    1.7657    9.5857 H       1  UNL1        0.0000
     68 H          -0.9919    0.1418    8.8536 H       1  UNL1        0.0000
     69 H          -0.4584   -1.4885    7.0824 H       1  UNL1        0.0000
     70 H           1.7514   -1.5123    6.0456 H       1  UNL1        0.0000
     71 H           5.9554    4.4185    3.2808 H       1  UNL1        0.0000
     72 H           6.4852    5.5044    1.1389 H       1  UNL1        0.0000
     73 H           8.5094    4.8251   -0.1156 H       1  UNL1        0.0000
     74 H           9.9973    3.0927    0.8110 H       1  UNL1        0.0000
     75 H           9.4822    2.0259    2.9461 H       1  UNL1        0.0000
     76 H           7.4618    5.2059    5.1925 H       1  UNL1        0.0000
     77 H           8.7994    6.6211    6.6966 H       1  UNL1        0.0000
     78 H          10.3225    5.5813    8.3393 H       1  UNL1        0.0000
     79 H          10.4908    3.1255    8.4709 H       1  UNL1        0.0000
     80 H           9.1719    1.7120    6.9801 H       1  UNL1        0.0000
     81 H           3.7071    4.2617    4.7397 H       1  UNL1        0.0000
     82 H           3.0571    6.4840    3.8964 H       1  UNL1        0.0000
     83 H           2.6504    6.8139    1.4800 H       1  UNL1        0.0000
     84 H           2.8675    4.9125   -0.0721 H       1  UNL1        0.0000
     85 H           3.4742    2.6931    0.7621 H       1  UNL1        0.0000
     86 H           2.0110    2.4494    5.2973 H       1  UNL1        0.0000
     87 H          -0.3519    1.8266    5.5946 H       1  UNL1        0.0000
     88 H          -1.3521    0.0754    4.1638 H       1  UNL1        0.0000
     89 H           0.0162   -1.0232    2.4336 H       1  UNL1        0.0000
     90 H           2.3467   -0.3771    2.0975 H       1  UNL1        0.0000
@<TRIPOS>BOND
     1    73    28    1
     2    84    41    1
     3    85    42    1
     4    74    29    1
     5    28    29   ar
     6    28    27   ar
     7    41    42   ar
     8    41    40   ar
     9    72    27    1
    10    60    12    1
    11    29    30   ar
    12    42    37   ar
    13    83    40    1
    14    27    26   ar
    15    59    12    1
    16    40    39   ar
    17    57    11    1
    18    90    48    1
    19    12    11    1
    20    12     5    1
    21    89    47    1
    22    30    75    1
    23    30    25   ar
    24    11    58    1
    25    11     6    1
    26    26    25   ar
    27    26    71    1
    28    54     9    1
    29    37     5    1
    30    37    38   ar
    31    48    47   ar
    32    48    43   ar
    33    47    46   ar
    34    39    38   ar
    35    39    82    1
    36    25     4    1
    37     5    43    1
    38     5     1    1
    39    43    44   ar
    40    38    81    1
    41    53     9    1
    42     9     6    1
    43     9    10    1
    44     6     7    1
    45    46    88    1
    46    46    45   ar
    47    49     7    1
    48    44    45   ar
    49    44    86    1
    50    56    10    1
    51    51     8    1
    52    45    87    1
    53    10     4    1
    54    10    55    1
    55     4     1    1
    56     4    31    1
    57     7     8    1
    58     7    50    1
    59    76    32    1
    60     1     3    1
    61     1     2    1
    62     8    52    1
    63     8     3    1
    64    32    31   ar
    65    32    33   ar
    66    31    36   ar
    67    70    24    1
    68     3    19    1
    69     3    13    1
    70    77    33    1
    71    33    34   ar
    72    24    19   ar
    73    24    23   ar
    74    36    80    1
    75    36    35   ar
    76    69    23    1
    77    19    20   ar
    78    23    22   ar
    79    34    35   ar
    80    34    78    1
    81    61    14    1
    82    35    79    1
    83    13    14   ar
    84    13    18   ar
    85    20    66    1
    86    20    21   ar
    87    14    15   ar
    88    22    21   ar
    89    22    68    1
    90    65    18    1
    91    21    67    1
    92    18    17   ar
    93    15    62    1
    94    15    16   ar
    95    17    16   ar
    96    17    64    1
    97    16    63    1
