@<TRIPOS>MOLECULE
CSD_code = DAJHOO | q = 0 | S = 0 | Stoichiometry = C28H20CoN5O5 | MND = 6
 59 66 0 0 0
SMALL
GASTEIGER

@<TRIPOS>ATOM
      1 CO          2.6187    4.5613    5.3506 Co.oh   1  UNL1        0.0000
      2 N           4.3679    4.0792    5.8064 N.am    1  UNL1        0.0000
      3 C           3.4716    5.8238    4.1838 C.ar    1  UNL1        0.0000
      4 O           6.5977    4.5676    5.4262 O.2     1  UNL1        0.0000
      5 N           2.1426    3.1129    6.6909 N.pl3   1  UNL1        0.0000
      6 C           2.9186    6.7504    3.3154 C.ar    1  UNL1        0.0000
      7 H           1.8467    6.8346    3.1909 H       1  UNL1        0.0000
      8 O           3.5961   -0.6597    9.8837 O.2     1  UNL1        0.0000
      9 O           5.6485   -0.1289   10.2121 O.2     1  UNL1        0.0000
     10 N           4.5707    0.0473    9.6692 N.pl3   1  UNL1        0.0000
     11 C           3.7375    7.6027    2.5843 C.ar    1  UNL1        0.0000
     12 H           3.2869    8.3211    1.9136 H       1  UNL1        0.0000
     13 O           2.6897    5.9437    6.6776 O.3     1  UNL1        0.0000
     14 N           2.4814    3.3428    3.9382 N.pl3   1  UNL1        0.0000
     15 C           5.1156    7.5459    2.7092 C.ar    1  UNL1        0.0000
     16 H           5.7391    8.2183    2.1386 H       1  UNL1        0.0000
     17 N           0.8769    5.0242    4.8945 N.pl3   1  UNL1        0.0000
     18 C           5.6839    6.6278    3.5706 C.ar    1  UNL1        0.0000
     19 H           6.7536    6.5533    3.7006 H       1  UNL1        0.0000
     20 C           3.1482    7.2849    8.5448 C.3     1  UNL1        0.0000
     21 H           2.7506    8.0493    7.8837 H       1  UNL1        0.0000
     22 H           4.2127    7.4544    8.6896 H       1  UNL1        0.0000
     23 H           2.6581    7.3156    9.5140 H       1  UNL1        0.0000
     24 O           3.0926    4.8923    8.6098 O.2     1  UNL1        0.0000
     25 C           4.8631    5.7744    4.2984 C.ar    1  UNL1        0.0000
     26 C           5.4117    4.7694    5.2359 C.2     1  UNL1        0.0000
     27 C           4.5005    3.1342    6.7615 C.2     1  UNL1        0.0000
     28 C           5.6893    2.6649    7.3218 C.2     1  UNL1        0.0000
     29 H           6.6280    3.0867    7.0040 H       1  UNL1        0.0000
     30 C           5.6550    1.6734    8.2799 C.2     1  UNL1        0.0000
     31 H           6.5786    1.3068    8.7041 H       1  UNL1        0.0000
     32 C           4.4687    1.1022    8.7254 C.2     1  UNL1        0.0000
     33 C           3.2217    1.5790    8.2303 C.2     1  UNL1        0.0000
     34 C           1.9473    1.1856    8.6838 C.2     1  UNL1        0.0000
     35 H           1.8585    0.4471    9.4640 H       1  UNL1        0.0000
     36 C           0.8285    1.7543    8.1305 C.2     1  UNL1        0.0000
     37 H          -0.1577    1.4792    8.4702 H       1  UNL1        0.0000
     38 C           0.9682    2.7105    7.1250 C.2     1  UNL1        0.0000
     39 H           0.0906    3.1597    6.6766 H       1  UNL1        0.0000
     40 C           3.2606    2.5854    7.2323 C.3     1  UNL1        0.0000
     41 C           3.4202    2.5110    3.4827 C.3     1  UNL1        0.0000
     42 H           4.3941    2.5739    3.9452 H       1  UNL1        0.0000
     43 C           3.1941    1.6033    2.4674 C.2     1  UNL1        0.0000
     44 H           3.9913    0.9549    2.1425 H       1  UNL1        0.0000
     45 C           1.9363    1.5438    1.8796 C.2     1  UNL1        0.0000
     46 H           1.7279    0.8444    1.0854 H       1  UNL1        0.0000
     47 C           0.9596    2.4068    2.3348 C.2     1  UNL1        0.0000
     48 H          -0.0260    2.3933    1.8991 H       1  UNL1        0.0000
     49 C           1.2579    3.2985    3.3629 C.2     1  UNL1        0.0000
     50 C           0.3287    4.2668    3.9182 C.3     1  UNL1        0.0000
     51 C          -0.9920    4.4416    3.5086 C.2     1  UNL1        0.0000
     52 H          -1.4064    3.8217    2.7304 H       1  UNL1        0.0000
     53 C          -1.7628    5.4180    4.1089 C.2     1  UNL1        0.0000
     54 H          -2.7875    5.5714    3.8086 H       1  UNL1        0.0000
     55 C          -1.1853    6.2010    5.1023 C.2     1  UNL1        0.0000
     56 H          -1.7475    6.9801    5.5910 H       1  UNL1        0.0000
     57 C           0.1288    5.9720    5.4598 C.2     1  UNL1        0.0000
     58 H           0.6202    6.5634    6.2191 H       1  UNL1        0.0000
     59 C           2.9756    5.8949    7.9283 C.2     1  UNL1        0.0000
@<TRIPOS>BOND
     1    46    45    1
     2    45    47    1
     3    45    43    2
     4    48    47    1
     5    12    11    1
     6    16    15    1
     7    44    43    1
     8    47    49    2
     9    43    41    1
    10    11    15   ar
    11    11     6   ar
    12    15    18   ar
    13    52    51    1
    14     7     6    1
    15     6     3   ar
    16    49    50    1
    17    49    14    1
    18    41    14    1
    19    41    42    1
    20    51    50    1
    21    51    53    2
    22    18    19    1
    23    18    25   ar
    24    54    53    1
    25    50    17    1
    26    14     1    1
    27    53    55    1
    28     3    25   ar
    29     3     1    1
    30    25    26    1
    31    17     1    1
    32    17    57    1
    33    55    57    2
    34    55    56    1
    35    26     4    2
    36    26     2   am
    37     1     2    1
    38     1    13    1
    39     1     5    1
    40    57    58    1
    41     2    27    1
    42    39    38    1
    43    13    59    1
    44     5    38    1
    45     5    40    1
    46    27    40    1
    47    27    28    2
    48    29    28    1
    49    38    36    2
    50    40    33    1
    51    28    30    1
    52    21    20    1
    53    59    20    1
    54    59    24    2
    55    36    37    1
    56    36    34    1
    57    33    34    2
    58    33    32    1
    59    30    31    1
    60    30    32    2
    61    20    22    1
    62    20    23    1
    63    34    35    1
    64    32    10    1
    65    10     8    2
    66    10     9    2
