@<TRIPOS>MOLECULE
CSD_code = DATCXO | q = 0 | S = 0 | Stoichiometry = C12H19CoN6O2S4 | MND = 6
 44 47 0 0 0
SMALL
GASTEIGER

@<TRIPOS>ATOM
      1 CO         -1.5810    3.4774    1.5114 Co.oh   1  UNL1        0.0000
      2 S          -1.4158    5.2055    3.0085 S.3     1  UNL1        0.0000
      3 S          -1.1198    4.8112    5.9047 S.3     1  UNL1        0.0000
      4 S           0.7530    3.5162    1.1029 S.3     1  UNL1        0.0000
      5 S           1.9817    5.0484   -1.0788 S.3     1  UNL1        0.0000
      6 O          -1.8820    1.6348   -0.8025 O.3     1  UNL1        0.0000
      7 O          -4.1262    3.0149    2.3235 O.3     1  UNL1        0.0000
      8 N          -1.3400    2.8260    4.2104 N.2     1  UNL1        0.0000
      9 N          -1.4804    2.3813    2.9707 N.pl3   1  UNL1        0.0000
     10 N          -1.7233    1.8449    0.5625 N.3     1  UNL1        0.0000
     11 N          -0.6020    5.0106   -0.6632 N.2     1  UNL1        0.0000
     12 N          -1.6745    4.6030    0.0385 N.pl3   1  UNL1        0.0000
     13 N          -3.4238    3.6640    1.5215 N.3     1  UNL1        0.0000
     14 C          -1.3022    4.1236    4.3281 C.2     1  UNL1        0.0000
     15 C          -1.5781    1.1021    2.7232 C.2     1  UNL1        0.0000
     16 C          -1.5314    0.0512    3.7801 C.3     1  UNL1        0.0000
     17 C          -1.7349    0.7995    1.3323 C.2     1  UNL1        0.0000
     18 C          -1.8861   -0.5968    0.8373 C.3     1  UNL1        0.0000
     19 C          -1.0622    3.3091    6.9242 C.3     1  UNL1        0.0000
     20 C           0.5397    4.5687   -0.2365 C.2     1  UNL1        0.0000
     21 C          -2.8744    5.0426   -0.2339 C.2     1  UNL1        0.0000
     22 C          -3.1680    6.0209   -1.3199 C.3     1  UNL1        0.0000
     23 C          -3.8817    4.4833    0.6043 C.2     1  UNL1        0.0000
     24 C          -5.3420    4.7773    0.4662 C.3     1  UNL1        0.0000
     25 C           1.2945    6.1921   -2.3120 C.3     1  UNL1        0.0000
     26 H          -1.6522    2.4680   -1.2397 H       1  UNL1        0.0000
     27 H          -1.3540    0.5234    4.7419 H       1  UNL1        0.0000
     28 H          -0.7373   -0.6648    3.5753 H       1  UNL1        0.0000
     29 H          -2.4779   -0.4861    3.8157 H       1  UNL1        0.0000
     30 H          -2.7807   -1.0424    1.2684 H       1  UNL1        0.0000
     31 H          -1.0284   -1.1941    1.1410 H       1  UNL1        0.0000
     32 H          -1.9674   -0.6044   -0.2455 H       1  UNL1        0.0000
     33 H          -1.9813    2.7514    6.7810 H       1  UNL1        0.0000
     34 H          -0.2035    2.7147    6.6312 H       1  UNL1        0.0000
     35 H          -0.9678    3.6399    7.9531 H       1  UNL1        0.0000
     36 H          -3.5961    6.9271   -0.8947 H       1  UNL1        0.0000
     37 H          -3.8896    5.6042   -2.0207 H       1  UNL1        0.0000
     38 H          -2.2489    6.2692   -1.8431 H       1  UNL1        0.0000
     39 H          -5.7064    4.4773   -0.5154 H       1  UNL1        0.0000
     40 H          -5.8800    4.2228    1.2315 H       1  UNL1        0.0000
     41 H          -5.5314    5.8416    0.5953 H       1  UNL1        0.0000
     42 H           0.6283    5.6492   -2.9739 H       1  UNL1        0.0000
     43 H           2.1393    6.5923   -2.8622 H       1  UNL1        0.0000
     44 H           0.7602    6.9836   -1.7976 H       1  UNL1        0.0000
@<TRIPOS>BOND
     1    42    25    1
     2    43    25    1
     3    25    44    1
     4    25     5    1
     5    37    22    1
     6    38    22    1
     7    22    36    1
     8    22    21    1
     9    26     6    1
    10     5    20    1
    11     6    10    1
    12    11    20    2
    13    11    12    1
    14    39    24    1
    15    32    18    1
    16    20     4    1
    17    21    12    1
    18    21    23    2
    19    12     1    1
    20    24    41    1
    21    24    23    1
    22    24    40    1
    23    10    17    1
    24    10     1    1
    25    23    13    1
    26    18    31    1
    27    18    30    1
    28    18    17    1
    29     4     1    1
    30    17    15    2
    31     1    13    1
    32     1     9    1
    33     1     2    1
    34    13     7    1
    35    15     9    1
    36    15    16    1
    37     9     8    1
    38     2    14    1
    39    28    16    1
    40    16    29    1
    41    16    27    1
    42     8    14    2
    43    14     3    1
    44     3    19    1
    45    34    19    1
    46    33    19    1
    47    19    35    1
