@<TRIPOS>MOLECULE
CSD_code = DEBQIM | q = 1 | S = 0 | Stoichiometry = C18H22CoN8S2(1+) | MND = 6
 51 56 0 0 0
SMALL
GASTEIGER

@<TRIPOS>ATOM
      1 CO          4.0236    1.7328   10.1661 Co.oh   1  UNL1        0.0000
      2 S           1.2689    4.1029    7.7203 S.3     1  UNL1        0.0000
      3 S           3.9956   -2.2449    8.3326 S.3     1  UNL1        0.0000
      4 N           5.5283    1.0255    9.4074 N.pl3   1  UNL1        0.0000
      5 N           1.7096    3.1258   10.0705 N.2     1  UNL1        0.0000
      6 N           3.3762    2.5991    8.5873 N.pl3   1  UNL1        0.0000
      7 H           3.7234    2.6535    7.6376 H       1  UNL1        0.0000
      8 N           5.4427   -0.1773    8.8845 N.2     1  UNL1        0.0000
      9 N           4.2688    1.0373   11.9358 N.pl3   1  UNL1        0.0000
     10 N           2.4807    2.4181   10.8654 N.pl3   1  UNL1        0.0000
     11 N           3.2788    0.0634    9.6016 N.pl3   1  UNL1        0.0000
     12 H           2.3461   -0.3281    9.6500 H       1  UNL1        0.0000
     13 N           5.1655    3.2287   10.5318 N.pl3   1  UNL1        0.0000
     14 C           6.4218    3.0175   10.0603 C.2     1  UNL1        0.0000
     15 C           3.2343    1.3780   12.7477 C.2     1  UNL1        0.0000
     16 C           6.6176    1.7436    9.4193 C.2     1  UNL1        0.0000
     17 C           2.2329    3.1897    8.8456 C.2     1  UNL1        0.0000
     18 C           2.2138    2.1752   12.1193 C.2     1  UNL1        0.0000
     19 C           7.4149    3.9925   10.2001 C.2     1  UNL1        0.0000
     20 H           8.4035    3.7990    9.8180 H       1  UNL1        0.0000
     21 C           4.8830    4.3837   11.1242 C.2     1  UNL1        0.0000
     22 H           3.8697    4.5189   11.4767 H       1  UNL1        0.0000
     23 C           2.2385    3.9912    6.1836 C.3     1  UNL1        0.0000
     24 H           3.2117    4.4555    6.3168 H       1  UNL1        0.0000
     25 H           1.6711    4.5475    5.4443 H       1  UNL1        0.0000
     26 H           2.3260    2.9557    5.8668 H       1  UNL1        0.0000
     27 C           4.2035   -0.6543    9.0080 C.2     1  UNL1        0.0000
     28 C           7.1106    5.1867   10.8193 C.2     1  UNL1        0.0000
     29 H           7.8617    5.9524   10.9338 H       1  UNL1        0.0000
     30 C           5.8180    5.3893   11.2900 C.2     1  UNL1        0.0000
     31 H           5.5368    6.3093   11.7744 H       1  UNL1        0.0000
     32 C           2.2392   -2.5907    8.6633 C.3     1  UNL1        0.0000
     33 H           2.0511   -2.5974    9.7333 H       1  UNL1        0.0000
     34 H           2.0597   -3.5818    8.2589 H       1  UNL1        0.0000
     35 H           1.6090   -1.8714    8.1479 H       1  UNL1        0.0000
     36 C           5.2510    0.2857   12.4209 C.2     1  UNL1        0.0000
     37 H           6.0510    0.0259   11.7414 H       1  UNL1        0.0000
     38 C           4.2265    0.1809   14.5749 C.2     1  UNL1        0.0000
     39 H           4.2163   -0.1555   15.5997 H       1  UNL1        0.0000
     40 C           5.2734   -0.1657   13.7281 C.2     1  UNL1        0.0000
     41 H           6.0919   -0.7761   14.0713 H       1  UNL1        0.0000
     42 C           3.1995    0.9581   14.0814 C.2     1  UNL1        0.0000
     43 H           2.3683    1.2443   14.7044 H       1  UNL1        0.0000
     44 C           7.9098    1.2869    8.8308 C.3     1  UNL1        0.0000
     45 H           8.6940    1.2682    9.5861 H       1  UNL1        0.0000
     46 H           8.2249    1.9529    8.0289 H       1  UNL1        0.0000
     47 H           7.7753    0.2864    8.4283 H       1  UNL1        0.0000
     48 C           0.9878    2.6703   12.8096 C.3     1  UNL1        0.0000
     49 H           0.3951    3.2416   12.1002 H       1  UNL1        0.0000
     50 H           1.2492    3.3070   13.6535 H       1  UNL1        0.0000
     51 H           0.3923    1.8384   13.1823 H       1  UNL1        0.0000
@<TRIPOS>BOND
     1    25    23    1
     2    26    23    1
     3    23    24    1
     4    23     2    1
     5     7     6    1
     6     2    17    1
     7    46    44    1
     8    35    32    1
     9    34    32    1
    10     3    32    1
    11     3    27    1
    12    47    44    1
    13     6    17    1
    14     6     1    1
    15    32    33    1
    16    44    16    1
    17    44    45    1
    18    17     5    2
    19     8    27    2
    20     8     4    1
    21    27    11    1
    22     4    16    1
    23     4     1    1
    24    16    14    2
    25    11    12    1
    26    11     1    1
    27    20    19    1
    28    14    19    1
    29    14    13    1
    30     5    10    1
    31     1    13    1
    32     1    10    1
    33     1     9    1
    34    19    28    2
    35    13    21    1
    36    28    29    1
    37    28    30    1
    38    10    18    1
    39    21    30    2
    40    21    22    1
    41    30    31    1
    42    37    36    1
    43     9    36    1
    44     9    15    1
    45    49    48    1
    46    18    15    2
    47    18    48    1
    48    36    40    2
    49    15    42    1
    50    48    51    1
    51    48    50    1
    52    40    41    1
    53    40    38    1
    54    42    38    2
    55    42    43    1
    56    38    39    1
