@<TRIPOS>MOLECULE
CSD_code = DEBQAE | q = 1 | S = 0 | Stoichiometry = C18H22CoN8S2(1+) | MND = 6
 51 56 0 0 0
SMALL
GASTEIGER

@<TRIPOS>ATOM
      1 CO         -0.3454    4.3772    9.0578 Co.oh   1  UNL1        0.0000
      2 S          -2.3662    5.4627   12.7895 S.3     1  UNL1        0.0000
      3 S           1.5724    8.0967    7.7635 S.3     1  UNL1        0.0000
      4 N           0.1317    3.6217   10.6523 N.pl3   1  UNL1        0.0000
      5 N          -0.5280    3.9921   11.7269 N.2     1  UNL1        0.0000
      6 N          -1.6050    5.2887   10.1733 N.pl3   1  UNL1        0.0000
      7 H          -2.3024    5.9994    9.9891 H       1  UNL1        0.0000
      8 N           1.0473    3.2641    8.3536 N.pl3   1  UNL1        0.0000
      9 C           1.6422    2.5374    9.3351 C.2     1  UNL1        0.0000
     10 C           1.1047    2.7525   10.6530 C.2     1  UNL1        0.0000
     11 C          -3.4980    6.6781   12.0439 C.3     1  UNL1        0.0000
     12 H          -2.9353    7.4904   11.5924 H       1  UNL1        0.0000
     13 H          -4.0895    7.0639   12.8680 H       1  UNL1        0.0000
     14 H          -4.1526    6.1931   11.3251 H       1  UNL1        0.0000
     15 N          -0.1950    6.3084    7.1728 N.2     1  UNL1        0.0000
     16 C           2.6813    8.2462    9.1994 C.3     1  UNL1        0.0000
     17 H           2.1036    8.3410   10.1146 H       1  UNL1        0.0000
     18 H           3.2456    9.1584    9.0335 H       1  UNL1        0.0000
     19 H           3.3633    7.4014    9.2391 H       1  UNL1        0.0000
     20 C           1.5956    2.0686   11.8843 C.3     1  UNL1        0.0000
     21 H           2.6434    2.3040   12.0644 H       1  UNL1        0.0000
     22 H           1.5005    0.9878   11.7908 H       1  UNL1        0.0000
     23 H           1.0052    2.4087   12.7308 H       1  UNL1        0.0000
     24 N          -1.6864    3.1046    8.5517 N.pl3   1  UNL1        0.0000
     25 C          -2.2467    5.2225    5.4863 C.3     1  UNL1        0.0000
     26 H          -1.6920    6.1335    5.2778 H       1  UNL1        0.0000
     27 H          -3.3084    5.4573    5.5425 H       1  UNL1        0.0000
     28 H          -2.0966    4.5164    4.6708 H       1  UNL1        0.0000
     29 N          -0.8228    5.2004    7.4974 N.pl3   1  UNL1        0.0000
     30 C          -1.7622    4.6524    6.7767 C.3     1  UNL1        0.0000
     31 C           1.4849    3.1441    7.1050 C.2     1  UNL1        0.0000
     32 H           0.9935    3.7466    6.3535 H       1  UNL1        0.0000
     33 C          -1.4523    4.9025   11.4183 C.2     1  UNL1        0.0000
     34 C           2.5239    2.3020    6.7527 C.2     1  UNL1        0.0000
     35 H           2.8426    2.2434    5.7255 H       1  UNL1        0.0000
     36 C           2.6963    1.6649    9.0447 C.2     1  UNL1        0.0000
     37 H           3.1498    1.0999    9.8420 H       1  UNL1        0.0000
     38 C           3.1397    1.5461    7.7441 C.2     1  UNL1        0.0000
     39 H           3.9526    0.8804    7.5003 H       1  UNL1        0.0000
     40 N           0.8627    5.8580    9.1560 N.pl3   1  UNL1        0.0000
     41 H           1.5382    6.1527    9.8505 H       1  UNL1        0.0000
     42 C           0.7021    6.6288    8.1060 C.2     1  UNL1        0.0000
     43 C          -2.1002    2.0135    9.1866 C.3     1  UNL1        0.0000
     44 H          -1.6196    1.7818   10.1271 H       1  UNL1        0.0000
     45 C          -3.1024    1.1959    8.6966 C.2     1  UNL1        0.0000
     46 H          -3.4035    0.3237    9.2522 H       1  UNL1        0.0000
     47 C          -3.7047    1.5252    7.4873 C.2     1  UNL1        0.0000
     48 H          -4.4887    0.9068    7.0792 H       1  UNL1        0.0000
     49 C          -3.2858    2.6576    6.8208 C.2     1  UNL1        0.0000
     50 H          -3.7299    2.9490    5.8834 H       1  UNL1        0.0000
     51 C          -2.2697    3.4445    7.3729 C.2     1  UNL1        0.0000
@<TRIPOS>BOND
     1    28    25    1
     2    26    25    1
     3    25    27    1
     4    25    30    1
     5    35    34    1
     6    50    49    1
     7    32    31    1
     8    34    31    2
     9    34    38    1
    10    30    51    1
    11    30    29    1
    12    49    51    2
    13    49    47    1
    14    48    47    1
    15    31     8    1
    16    15    29    1
    17    15    42    2
    18    51    24    1
    19    47    45    2
    20    29     1    1
    21    39    38    1
    22    38    36    2
    23     3    42    1
    24     3    16    1
    25    42    40    1
    26     8     1    1
    27     8     9    1
    28    24     1    1
    29    24    43    1
    30    45    43    1
    31    45    46    1
    32    18    16    1
    33    36     9    1
    34    36    37    1
    35     1    40    1
    36     1     6    1
    37     1     4    1
    38    40    41    1
    39    43    44    1
    40    16    19    1
    41    16    17    1
    42     9    10    2
    43     7     6    1
    44     6    33    1
    45     4    10    1
    46     4     5    1
    47    10    20    1
    48    14    11    1
    49    33     5    2
    50    33     2    1
    51    12    11    1
    52    22    20    1
    53    20    21    1
    54    20    23    1
    55    11     2    1
    56    11    13    1
