@<TRIPOS>MOLECULE
CSD_code = DEHBEZ | q = 0 | S = 0 | Stoichiometry = C41H39CoIP3 | MND = 4
 85 92 0 0 0
SMALL
GASTEIGER

@<TRIPOS>ATOM
      1 CO         18.9772    9.5915    3.6511 Co.oh   1  UNL1        0.0000
      2 I          17.3198   10.5414    2.1419 I       1  UNL1        0.0000
      3 P          19.1274   10.4804    5.6372 P.3     1  UNL1        0.0000
      4 P          18.5018    7.4448    4.3281 P.3     1  UNL1        0.0000
      5 P          21.0496    9.1037    3.8118 P.3     1  UNL1        0.0000
      6 C          20.4664    8.0355    6.3538 C.3     1  UNL1        0.0000
      7 C          19.4917    9.1242    6.8353 C.3     1  UNL1        0.0000
      8 H          19.8733    9.5755    7.7569 H       1  UNL1        0.0000
      9 H          18.5279    8.6538    7.0599 H       1  UNL1        0.0000
     10 C          19.7563    6.9109    5.5824 C.3     1  UNL1        0.0000
     11 H          19.2587    6.2337    6.2852 H       1  UNL1        0.0000
     12 H          20.5236    6.3471    5.0421 H       1  UNL1        0.0000
     13 C          21.5942    8.6372    5.5046 C.3     1  UNL1        0.0000
     14 H          22.4261    7.9287    5.4411 H       1  UNL1        0.0000
     15 H          21.9495    9.5532    5.9900 H       1  UNL1        0.0000
     16 C          21.1066    7.4021    7.5997 C.3     1  UNL1        0.0000
     17 H          20.3394    7.0533    8.2890 H       1  UNL1        0.0000
     18 H          21.7329    8.1252    8.1203 H       1  UNL1        0.0000
     19 H          21.7274    6.5514    7.3227 H       1  UNL1        0.0000
     20 C          17.7834   11.3885    6.4785 C.ar    1  UNL1        0.0000
     21 C          17.2044   11.0626    7.6987 C.ar    1  UNL1        0.0000
     22 H          17.5469   10.2130    8.2703 H       1  UNL1        0.0000
     23 C          16.1648   11.8316    8.1934 C.ar    1  UNL1        0.0000
     24 H          15.7170   11.5723    9.1422 H       1  UNL1        0.0000
     25 C          15.6948   12.9215    7.4810 C.ar    1  UNL1        0.0000
     26 H          14.8792   13.5113    7.8728 H       1  UNL1        0.0000
     27 C          16.2670   13.2492    6.2618 C.ar    1  UNL1        0.0000
     28 H          15.8986   14.0923    5.6969 H       1  UNL1        0.0000
     29 C          17.3024   12.4844    5.7636 C.ar    1  UNL1        0.0000
     30 H          17.7417   12.7197    4.8024 H       1  UNL1        0.0000
     31 C          16.9768    7.3523    5.3391 C.ar    1  UNL1        0.0000
     32 C          16.2206    8.4995    5.5399 C.ar    1  UNL1        0.0000
     33 H          16.5230    9.4293    5.0738 H       1  UNL1        0.0000
     34 C          15.0821    8.4629    6.3249 C.ar    1  UNL1        0.0000
     35 H          14.5085    9.3652    6.4786 H       1  UNL1        0.0000
     36 C          14.6847    7.2706    6.9044 C.ar    1  UNL1        0.0000
     37 H          13.7957    7.2357    7.5170 H       1  UNL1        0.0000
     38 C          15.4223    6.1157    6.6902 C.ar    1  UNL1        0.0000
     39 H          15.1033    5.1819    7.1310 H       1  UNL1        0.0000
     40 C          16.5631    6.1524    5.9116 C.ar    1  UNL1        0.0000
     41 H          17.1292    5.2471    5.7347 H       1  UNL1        0.0000
     42 C          18.2545    5.9234    3.3547 C.ar    1  UNL1        0.0000
     43 C          17.1739    6.0039    2.4746 C.ar    1  UNL1        0.0000
     44 H          16.5575    6.8953    2.4824 H       1  UNL1        0.0000
     45 C          16.8951    4.9726    1.6022 C.ar    1  UNL1        0.0000
     46 H          16.0538    5.0466    0.9289 H       1  UNL1        0.0000
     47 C          17.7055    3.8473    1.5852 C.ar    1  UNL1        0.0000
     48 H          17.4968    3.0388    0.9001 H       1  UNL1        0.0000
     49 C          18.7877    3.7659    2.4438 C.ar    1  UNL1        0.0000
     50 H          19.4242    2.8923    2.4294 H       1  UNL1        0.0000
     51 C          19.0679    4.7974    3.3232 C.ar    1  UNL1        0.0000
     52 H          19.9226    4.7059    3.9775 H       1  UNL1        0.0000
     53 C          21.4667    7.6672    2.7605 C.ar    1  UNL1        0.0000
     54 C          20.5711    7.3571    1.7426 C.ar    1  UNL1        0.0000
     55 H          19.6766    7.9597    1.6162 H       1  UNL1        0.0000
     56 C          20.8116    6.2918    0.8949 C.ar    1  UNL1        0.0000
     57 H          20.1037    6.0533    0.1152 H       1  UNL1        0.0000
     58 C          21.9554    5.5298    1.0587 C.ar    1  UNL1        0.0000
     59 H          22.1429    4.6881    0.4085 H       1  UNL1        0.0000
     60 C          22.8688    5.8533    2.0501 C.ar    1  UNL1        0.0000
     61 H          23.7717    5.2701    2.1637 H       1  UNL1        0.0000
     62 C          22.6343    6.9236    2.8933 C.ar    1  UNL1        0.0000
     63 H          23.3664    7.1819    3.6469 H       1  UNL1        0.0000
     64 C          22.3778   10.2229    3.2535 C.ar    1  UNL1        0.0000
     65 C          22.1170   10.8595    2.0417 C.ar    1  UNL1        0.0000
     66 H          21.1765   10.6634    1.5380 H       1  UNL1        0.0000
     67 C          23.0310   11.7404    1.4997 C.ar    1  UNL1        0.0000
     68 H          22.8184   12.2337    0.5628 H       1  UNL1        0.0000
     69 C          24.2178   11.9955    2.1690 C.ar    1  UNL1        0.0000
     70 H          24.9340   12.6902    1.7554 H       1  UNL1        0.0000
     71 C          24.4855   11.3605    3.3696 C.ar    1  UNL1        0.0000
     72 H          25.4120   11.5578    3.8898 H       1  UNL1        0.0000
     73 C          23.5732   10.4733    3.9138 C.ar    1  UNL1        0.0000
     74 H          23.8029    9.9895    4.8517 H       1  UNL1        0.0000
     75 C          20.4527   11.7146    5.8867 C.ar    1  UNL1        0.0000
     76 C          20.8253   12.4383    4.7586 C.ar    1  UNL1        0.0000
     77 H          20.3276   12.2366    3.8171 H       1  UNL1        0.0000
     78 C          21.8154   13.3998    4.8324 C.ar    1  UNL1        0.0000
     79 H          22.0999   13.9503    3.9480 H       1  UNL1        0.0000
     80 C          22.4450   13.6441    6.0407 C.ar    1  UNL1        0.0000
     81 H          23.2285   14.3847    6.1040 H       1  UNL1        0.0000
     82 C          22.0615   12.9457    7.1750 C.ar    1  UNL1        0.0000
     83 H          22.5411   13.1495    8.1219 H       1  UNL1        0.0000
     84 C          21.0633   11.9916    7.1048 C.ar    1  UNL1        0.0000
     85 H          20.7623   11.4702    8.0033 H       1  UNL1        0.0000
@<TRIPOS>BOND
     1    57    56    1
     2    59    58    1
     3    68    67    1
     4    56    58   ar
     5    56    54   ar
     6    48    47    1
     7    46    45    1
     8    58    60   ar
     9    67    65   ar
    10    67    69   ar
    11    66    65    1
    12    47    45   ar
    13    47    49   ar
    14    45    43   ar
    15    55    54    1
    16    54    53   ar
    17    70    69    1
    18    65    64   ar
    19    60    61    1
    20    60    62   ar
    21     2     1    1
    22    69    71   ar
    23    50    49    1
    24    49    51   ar
    25    43    44    1
    26    43    42   ar
    27    53    62   ar
    28    53     5    1
    29    62    63    1
    30    64     5    1
    31    64    73   ar
    32    51    42   ar
    33    51    52    1
    34    42     4    1
    35    71    72    1
    36    71    73   ar
    37     1     5    1
    38     1     4    1
    39     1     3    1
    40     5    13    1
    41    77    76    1
    42    73    74    1
    43    79    78    1
    44     4    31    1
    45     4    10    1
    46    76    78   ar
    47    76    75   ar
    48    30    29    1
    49    78    80   ar
    50    12    10    1
    51    33    32    1
    52    31    32   ar
    53    31    40   ar
    54    14    13    1
    55    13    15    1
    56    13     6    1
    57    32    34   ar
    58    10    11    1
    59    10     6    1
    60     3    75    1
    61     3    20    1
    62     3     7    1
    63    28    27    1
    64    41    40    1
    65    29    27   ar
    66    29    20   ar
    67    75    84   ar
    68    40    38   ar
    69    80    81    1
    70    80    82   ar
    71    27    25   ar
    72    34    35    1
    73    34    36   ar
    74     6     7    1
    75     6    16    1
    76    20    21   ar
    77    38    36   ar
    78    38    39    1
    79     7     9    1
    80     7     8    1
    81    36    37    1
    82    84    82   ar
    83    84    85    1
    84    82    83    1
    85    19    16    1
    86    25    26    1
    87    25    23   ar
    88    16    18    1
    89    16    17    1
    90    21    23   ar
    91    21    22    1
    92    23    24    1
