@<TRIPOS>MOLECULE
CSD_code = DOKWEI | q = 0 | S = 0 | Stoichiometry = C21H11CoF15N3 | MND = 6
 51 55 0 0 0
SMALL
GASTEIGER

@<TRIPOS>ATOM
      1 CO          6.7701    7.8679    4.1814 Co.oh   1  UNL1        0.0000
      2 N           5.0103    7.2966    4.7963 N.pl3   1  UNL1        0.0000
      3 F           5.1725   10.1429    3.2595 F       1  UNL1        0.0000
      4 C           5.8381    9.0644    2.7631 C.3     1  UNL1        0.0000
      5 C           6.6340    9.6040    1.5523 C.3     1  UNL1        0.0000
      6 N           6.5209    6.5060    2.9599 N.pl3   1  UNL1        0.0000
      7 F           4.8064    8.3553    2.1376 F       1  UNL1        0.0000
      8 F           6.9308    8.5972    0.6980 F       1  UNL1        0.0000
      9 N           8.5336    7.9462    3.3223 N.pl3   1  UNL1        0.0000
     10 C           6.9663    9.5158    5.3268 C.3     1  UNL1        0.0000
     11 F           7.8044   10.1709    1.8598 F       1  UNL1        0.0000
     12 C           7.6908    9.7256    6.6874 C.3     1  UNL1        0.0000
     13 F           5.9445   10.4982    0.8438 F       1  UNL1        0.0000
     14 C           7.5741    6.6392    5.5763 C.3     1  UNL1        0.0000
     15 C           7.7484    5.1326    5.2852 C.3     1  UNL1        0.0000
     16 F           7.5427   10.4869    4.5251 F       1  UNL1        0.0000
     17 F           5.7249   10.0477    5.6140 F       1  UNL1        0.0000
     18 C           4.3373    7.6653    5.8795 C.3     1  UNL1        0.0000
     19 H           4.8051    8.3642    6.5523 H       1  UNL1        0.0000
     20 F           7.5786   11.0047    7.0745 F       1  UNL1        0.0000
     21 C           3.0754    7.1787    6.1845 C.2     1  UNL1        0.0000
     22 H           2.5787    7.5255    7.0755 H       1  UNL1        0.0000
     23 C           2.4802    6.2612    5.3370 C.2     1  UNL1        0.0000
     24 H           1.4924    5.8758    5.5367 H       1  UNL1        0.0000
     25 F           7.1573    8.9937    7.6669 F       1  UNL1        0.0000
     26 C           4.4609    6.3528    3.9968 C.2     1  UNL1        0.0000
     27 F           8.8365    7.0359    5.9556 F       1  UNL1        0.0000
     28 C           3.1965    5.8301    4.2349 C.2     1  UNL1        0.0000
     29 H           2.7882    5.0908    3.5661 H       1  UNL1        0.0000
     30 F           9.0028    9.4721    6.6510 F       1  UNL1        0.0000
     31 C           5.0472    4.9799    1.9153 C.2     1  UNL1        0.0000
     32 H           4.0852    4.4987    1.8653 H       1  UNL1        0.0000
     33 F           8.5545    4.9053    4.2316 F       1  UNL1        0.0000
     34 C           5.3284    5.9101    2.9097 C.3     1  UNL1        0.0000
     35 F           6.8464    6.6429    6.7476 F       1  UNL1        0.0000
     36 C           6.0298    4.6932    0.9810 C.2     1  UNL1        0.0000
     37 H           5.8352    3.9774    0.1974 H       1  UNL1        0.0000
     38 F           6.5758    4.5356    4.9965 F       1  UNL1        0.0000
     39 C           7.2584    5.3318    1.0444 C.2     1  UNL1        0.0000
     40 H           8.0223    5.1276    0.3139 H       1  UNL1        0.0000
     41 F           8.2697    4.4611    6.3099 F       1  UNL1        0.0000
     42 C           7.4730    6.2547    2.0615 C.2     1  UNL1        0.0000
     43 C           8.6665    7.0572    2.3091 C.3     1  UNL1        0.0000
     44 C           9.8458    6.9254    1.5890 C.2     1  UNL1        0.0000
     45 H           9.9043    6.2092    0.7866 H       1  UNL1        0.0000
     46 C          10.9338    7.7138    1.9181 C.2     1  UNL1        0.0000
     47 H          11.8592    7.6312    1.3697 H       1  UNL1        0.0000
     48 C          10.8014    8.6007    2.9712 C.2     1  UNL1        0.0000
     49 H          11.6176    9.2316    3.2814 H       1  UNL1        0.0000
     50 C           9.5911    8.6835    3.6417 C.2     1  UNL1        0.0000
     51 H           9.4964    9.3782    4.4567 H       1  UNL1        0.0000
@<TRIPOS>BOND
     1    37    36    1
     2    40    39    1
     3     8     5    1
     4    45    44    1
     5    13     5    1
     6    36    39    1
     7    36    31    2
     8    39    42    2
     9    47    46    1
    10     5    11    1
    11     5     4    1
    12    44    46    2
    13    44    43    1
    14    32    31    1
    15    31    34    1
    16    46    48    1
    17    42    43    1
    18    42     6    1
    19     7     4    1
    20    43     9    1
    21     4     3    1
    22     4     1    1
    23    34     6    1
    24    34    26    1
    25     6     1    1
    26    48    49    1
    27    48    50    2
    28     9    50    1
    29     9     1    1
    30    29    28    1
    31    50    51    1
    32    26    28    2
    33    26     2    1
    34     1     2    1
    35     1    10    1
    36     1    14    1
    37    33    15    1
    38    28    23    1
    39    16    10    1
    40     2    18    1
    41    38    15    1
    42    15    14    1
    43    15    41    1
    44    10    17    1
    45    10    12    1
    46    23    24    1
    47    23    21    2
    48    14    27    1
    49    14    35    1
    50    18    21    1
    51    18    19    1
    52    21    22    1
    53    30    12    1
    54    12    20    1
    55    12    25    1
