@<TRIPOS>MOLECULE
CSD_code = DUVXAT | q = 1 | S = 0 | Stoichiometry = C42H42CoP6(1+) | MND = 6
 91 101 0 0 0
SMALL
GASTEIGER

@<TRIPOS>ATOM
      1 CO         10.4317   11.1953    3.9276 Co.oh   1  UNL1        0.0000
      2 P          11.3647    9.3537    3.0344 P.3     1  UNL1        0.0000
      3 P          12.2948   12.2899    3.7799 P.3     1  UNL1        0.0000
      4 P          10.9978   10.5632    5.9992 P.3     1  UNL1        0.0000
      5 P           8.8831   12.9349    4.0567 P.3     1  UNL1        0.0000
      6 P           9.1544   12.0125    2.1684 P.3     1  UNL1        0.0000
      7 P           8.1661   10.9262    3.7453 P.3     1  UNL1        0.0000
      8 C          13.5072    9.9263    4.8196 C.3     1  UNL1        0.0000
      9 C          12.7182    8.7854    4.1509 C.3     1  UNL1        0.0000
     10 C          13.6999   11.1057    3.8521 C.3     1  UNL1        0.0000
     11 C          12.8277   10.3892    6.1191 C.3     1  UNL1        0.0000
     12 C          14.8973    9.3860    5.1853 C.3     1  UNL1        0.0000
     13 C           6.3368   10.9586    3.4554 C.3     1  UNL1        0.0000
     14 C          10.3280    7.8769    2.7925 C.ar    1  UNL1        0.0000
     15 C           9.2456    8.0648    1.9338 C.ar    1  UNL1        0.0000
     16 C           8.3815    7.0243    1.6569 C.ar    1  UNL1        0.0000
     17 C           8.5912    5.7830    2.2381 C.ar    1  UNL1        0.0000
     18 C           9.6685    5.5897    3.0855 C.ar    1  UNL1        0.0000
     19 C          10.5390    6.6296    3.3661 C.ar    1  UNL1        0.0000
     20 C          12.1513    9.3532    1.3858 C.ar    1  UNL1        0.0000
     21 C          12.0250   10.4517    0.5467 C.ar    1  UNL1        0.0000
     22 C          12.5941   10.4375   -0.7146 C.ar    1  UNL1        0.0000
     23 C          13.2835    9.3184   -1.1479 C.ar    1  UNL1        0.0000
     24 C          13.3901    8.2074   -0.3240 C.ar    1  UNL1        0.0000
     25 C          12.8230    8.2183    0.9355 C.ar    1  UNL1        0.0000
     26 C          12.6099   13.2939    2.2984 C.ar    1  UNL1        0.0000
     27 C          11.7262   14.3569    2.1129 C.ar    1  UNL1        0.0000
     28 C          11.8660   15.2016    1.0298 C.ar    1  UNL1        0.0000
     29 C          12.8943   14.9946    0.1232 C.ar    1  UNL1        0.0000
     30 C          13.7809   13.9474    0.3098 C.ar    1  UNL1        0.0000
     31 C          13.6438   13.0934    1.3909 C.ar    1  UNL1        0.0000
     32 C          12.6935   13.5565    5.0319 C.ar    1  UNL1        0.0000
     33 C          11.7381   14.0179    5.9261 C.ar    1  UNL1        0.0000
     34 C          12.0575   15.0031    6.8442 C.ar    1  UNL1        0.0000
     35 C          13.3323   15.5411    6.8657 C.ar    1  UNL1        0.0000
     36 C          14.2818   15.1088    5.9512 C.ar    1  UNL1        0.0000
     37 C          13.9660   14.1272    5.0322 C.ar    1  UNL1        0.0000
     38 C          10.5465   11.5391    7.4674 C.ar    1  UNL1        0.0000
     39 C          11.4231   11.9880    8.4469 C.ar    1  UNL1        0.0000
     40 C          10.9351   12.7066    9.5252 C.ar    1  UNL1        0.0000
     41 C           9.5825   12.9814    9.6335 C.ar    1  UNL1        0.0000
     42 C           8.7036   12.5321    8.6600 C.ar    1  UNL1        0.0000
     43 C           9.1852   11.8148    7.5836 C.ar    1  UNL1        0.0000
     44 C          10.3860    8.9496    6.6096 C.ar    1  UNL1        0.0000
     45 C          10.8491    8.4607    7.8302 C.ar    1  UNL1        0.0000
     46 C          10.3760    7.2583    8.3182 C.ar    1  UNL1        0.0000
     47 C           9.4296    6.5380    7.6042 C.ar    1  UNL1        0.0000
     48 C           8.9446    7.0336    6.4070 C.ar    1  UNL1        0.0000
     49 C           9.4181    8.2377    5.9155 C.ar    1  UNL1        0.0000
     50 H          13.4005    8.1591    3.5674 H       1  UNL1        0.0000
     51 H          12.2634    8.1711    4.9348 H       1  UNL1        0.0000
     52 H          14.5960   11.6693    4.1303 H       1  UNL1        0.0000
     53 H          13.8364   10.7081    2.8407 H       1  UNL1        0.0000
     54 H          13.0548    9.6821    6.9231 H       1  UNL1        0.0000
     55 H          13.2308   11.3710    6.3900 H       1  UNL1        0.0000
     56 H          14.8111    8.4749    5.7736 H       1  UNL1        0.0000
     57 H          15.4526   10.1172    5.7692 H       1  UNL1        0.0000
     58 H          15.4697    9.1597    4.2880 H       1  UNL1        0.0000
     59 H           5.8263   10.8630    4.4119 H       1  UNL1        0.0000
     60 H           6.0697   10.1175    2.8180 H       1  UNL1        0.0000
     61 H           6.0622   11.8960    2.9750 H       1  UNL1        0.0000
     62 H           9.0947    9.0384    1.4785 H       1  UNL1        0.0000
     63 H           7.5475    7.1763    0.9884 H       1  UNL1        0.0000
     64 H           7.9168    4.9672    2.0275 H       1  UNL1        0.0000
     65 H           9.8361    4.6220    3.5340 H       1  UNL1        0.0000
     66 H          11.3702    6.4545    4.0322 H       1  UNL1        0.0000
     67 H          11.4750   11.3218    0.8822 H       1  UNL1        0.0000
     68 H          12.4939   11.2999   -1.3561 H       1  UNL1        0.0000
     69 H          13.7284    9.3034   -2.1310 H       1  UNL1        0.0000
     70 H          13.9107    7.3269   -0.6692 H       1  UNL1        0.0000
     71 H          12.8866    7.3388    1.5619 H       1  UNL1        0.0000
     72 H          10.9322   14.5166    2.8339 H       1  UNL1        0.0000
     73 H          11.1765   16.0202    0.8917 H       1  UNL1        0.0000
     74 H          13.0059   15.6509   -0.7260 H       1  UNL1        0.0000
     75 H          14.5873   13.7905   -0.3909 H       1  UNL1        0.0000
     76 H          14.3445   12.2812    1.5112 H       1  UNL1        0.0000
     77 H          10.7360   13.6117    5.9005 H       1  UNL1        0.0000
     78 H          11.3072   15.3486    7.5390 H       1  UNL1        0.0000
     79 H          13.5852   16.3075    7.5819 H       1  UNL1        0.0000
     80 H          15.2693   15.5453    5.9496 H       1  UNL1        0.0000
     81 H          14.7021   13.8186    4.3022 H       1  UNL1        0.0000
     82 H          12.4823   11.7893    8.3819 H       1  UNL1        0.0000
     83 H          11.6190   13.0539   10.2850 H       1  UNL1        0.0000
     84 H           9.2124   13.5450   10.4762 H       1  UNL1        0.0000
     85 H           7.6482   12.7434    8.7420 H       1  UNL1        0.0000
     86 H           8.5080   11.4604    6.8129 H       1  UNL1        0.0000
     87 H          11.5650    9.0294    8.4079 H       1  UNL1        0.0000
     88 H          10.7401    6.8841    9.2631 H       1  UNL1        0.0000
     89 H           9.0638    5.5990    7.9902 H       1  UNL1        0.0000
     90 H           8.1968    6.4871    5.8523 H       1  UNL1        0.0000
     91 H           9.0268    8.6246    4.9834 H       1  UNL1        0.0000
@<TRIPOS>BOND
     1    69    23    1
     2    68    22    1
     3    23    22   ar
     4    23    24   ar
     5    74    29    1
     6    22    21   ar
     7    70    24    1
     8    75    30    1
     9    24    25   ar
    10    29    30   ar
    11    29    28   ar
    12    30    31   ar
    13    21    67    1
    14    21    20   ar
    15    73    28    1
    16    25    20   ar
    17    25    71    1
    18    63    16    1
    19    28    27   ar
    20    20     2    1
    21    31    76    1
    22    31    26   ar
    23    62    15    1
    24    16    15   ar
    25    16    17   ar
    26    15    14   ar
    27    64    17    1
    28    27    26   ar
    29    27    72    1
    30     6     7    1
    31     6     1    1
    32     6     5    1
    33    17    18   ar
    34    26     3    1
    35    14     2    1
    36    14    19   ar
    37    60    13    1
    38    53    10    1
    39    61    13    1
    40     2     1    1
    41     2     9    1
    42    18    19   ar
    43    18    65    1
    44    19    66    1
    45    13     7    1
    46    13    59    1
    47    50     9    1
    48     7     1    1
    49     7     5    1
    50     3    10    1
    51     3     1    1
    52     3    32    1
    53    10    52    1
    54    10     8    1
    55     1     5    1
    56     1     4    1
    57     9     8    1
    58     9    51    1
    59    58    12    1
    60    81    37    1
    61     8    12    1
    62     8    11    1
    63    91    49    1
    64    32    37   ar
    65    32    33   ar
    66    37    36   ar
    67    12    57    1
    68    12    56    1
    69    90    48    1
    70    77    33    1
    71    49    48   ar
    72    49    44   ar
    73    33    34   ar
    74    80    36    1
    75    36    35   ar
    76     4    11    1
    77     4    44    1
    78     4    38    1
    79    11    55    1
    80    11    54    1
    81    48    47   ar
    82    44    45   ar
    83    86    43    1
    84    34    35   ar
    85    34    78    1
    86    35    79    1
    87    38    43   ar
    88    38    39   ar
    89    43    42   ar
    90    47    89    1
    91    47    46   ar
    92    45    46   ar
    93    45    87    1
    94    46    88    1
    95    82    39    1
    96    39    40   ar
    97    42    85    1
    98    42    41   ar
    99    40    41   ar
   100    40    83    1
   101    41    84    1
