@<TRIPOS>MOLECULE
CSD_code = DUWGOT | q = 1 | S = 0 | Stoichiometry = C28H30CoN8O4(1+) | MND = 6
 71 78 0 0 0
SMALL
GASTEIGER

@<TRIPOS>ATOM
      1 CO          1.3088    1.3155    5.3336 Co.oh   1  UNL1        0.0000
      2 O           1.6878    0.0323    6.5880 O.3     1  UNL1        0.0000
      3 O           3.0217   -1.3893   10.8052 O.3     1  UNL1        0.0000
      4 H           3.6989   -1.2631   11.4826 H       1  UNL1        0.0000
      5 O           0.8649    2.5054    6.6645 O.3     1  UNL1        0.0000
      6 O          -0.4698    3.3377   11.0852 O.3     1  UNL1        0.0000
      7 H           0.3080    3.9095   11.0599 H       1  UNL1        0.0000
      8 N           1.0102    2.7407    3.9140 N.pl3   1  UNL1        0.3300
      9 N           2.4987    4.1378    2.6711 N.pl3   1  UNL1        0.3300
     10 H           3.4507    4.4602    2.5565 H       1  UNL1        0.0000
     11 N           3.2944    2.8779    4.3951 N.2     1  UNL1        0.3300
     12 N           3.0154    2.0187    5.4148 N.pl3   1  UNL1        0.0000
     13 N           1.6415   -0.0163    3.8539 N.pl3   1  UNL1        0.0000
     14 N           0.2221   -1.4052    2.5258 N.2     1  UNL1        0.0000
     15 N          -0.6403   -0.1378    4.1960 N.3     1  UNL1        0.0000
     16 H          -1.4757   -0.7029    4.0819 H       1  UNL1        0.0000
     17 N          -0.4475    0.5983    5.3324 N.3     1  UNL1        0.0000
     18 C           2.2833    3.2223    3.6836 C.cat   1  UNL1        0.0000
     19 C           0.0106    3.2705    3.2429 C.3     1  UNL1        0.0000
     20 C           0.2258    4.2135    2.2088 C.2     1  UNL1        0.0000
     21 C           1.4961    4.6368    1.9235 C.2     1  UNL1        0.0000
     22 C           3.9093    1.8878    6.3587 C.3     1  UNL1        0.0000
     23 C           5.2055    2.6357    6.2506 C.3     1  UNL1        0.0000
     24 C           3.6792    1.0428    7.4892 C.ar    1  UNL1        0.0000
     25 C           2.5491    0.1682    7.5445 C.ar    1  UNL1        0.0000
     26 C           2.3767   -0.6380    8.6820 C.ar    1  UNL1        0.0000
     27 C           3.2583   -0.5965    9.7419 C.ar    1  UNL1        0.0000
     28 C           4.3595    0.2732    9.6927 C.ar    1  UNL1        0.0000
     29 C           4.5549    1.0618    8.5917 C.ar    1  UNL1        0.0000
     30 C          -1.3920    2.8867    3.5570 C.3     1  UNL1        0.0000
     31 C           1.8418    5.6215    0.8679 C.3     1  UNL1        0.0000
     32 C           0.4491   -0.5410    3.5044 C.3     1  UNL1        0.0000
     33 C           2.7129   -0.5250    3.2175 C.2     1  UNL1        0.0000
     34 C           2.5494   -1.4380    2.1872 C.2     1  UNL1        0.0000
     35 C           1.2621   -1.8475    1.8372 C.2     1  UNL1        0.0000
     36 C          -1.3753    0.6814    6.2412 C.3     1  UNL1        0.0000
     37 C          -2.7235    0.0577    5.9950 C.3     1  UNL1        0.0000
     38 C          -1.1181    1.3811    7.4666 C.ar    1  UNL1        0.0000
     39 C           0.0170    2.2392    7.6079 C.ar    1  UNL1        0.0000
     40 C           0.2060    2.9016    8.8349 C.ar    1  UNL1        0.0000
     41 C          -0.6465    2.7199    9.9023 C.ar    1  UNL1        0.0000
     42 C          -1.7346    1.8416    9.7757 C.ar    1  UNL1        0.0000
     43 C          -1.9537    1.2032    8.5877 C.ar    1  UNL1        0.0000
     44 C           4.0845   -0.1263    3.6384 C.3     1  UNL1        0.0000
     45 C           1.0040   -2.8044    0.7296 C.3     1  UNL1        0.0000
     46 H          -0.6135    4.5957    1.6556 H       1  UNL1        0.0000
     47 H           5.2278    3.4418    6.9815 H       1  UNL1        0.0000
     48 H           5.2983    3.0676    5.2593 H       1  UNL1        0.0000
     49 H           6.0447    1.9715    6.4395 H       1  UNL1        0.0000
     50 H           1.5268   -1.2992    8.7204 H       1  UNL1        0.0000
     51 H           5.0454    0.3187   10.5266 H       1  UNL1        0.0000
     52 H           5.4008    1.7295    8.5858 H       1  UNL1        0.0000
     53 H          -1.5215    2.7983    4.6326 H       1  UNL1        0.0000
     54 H          -1.6250    1.9265    3.0975 H       1  UNL1        0.0000
     55 H          -2.0833    3.6291    3.1679 H       1  UNL1        0.0000
     56 H           2.6213    5.2269    0.2177 H       1  UNL1        0.0000
     57 H           2.2210    6.5370    1.3219 H       1  UNL1        0.0000
     58 H           0.9708    5.8672    0.2690 H       1  UNL1        0.0000
     59 H           3.4077   -1.8340    1.6711 H       1  UNL1        0.0000
     60 H          -2.6853   -1.0171    6.1749 H       1  UNL1        0.0000
     61 H          -3.0501    0.2316    4.9699 H       1  UNL1        0.0000
     62 H          -3.4728    0.4886    6.6489 H       1  UNL1        0.0000
     63 H           1.0627    3.5563    8.9144 H       1  UNL1        0.0000
     64 H          -2.3730    1.6821   10.6282 H       1  UNL1        0.0000
     65 H          -2.7769    0.5096    8.5351 H       1  UNL1        0.0000
     66 H           4.1962   -0.2858    4.7092 H       1  UNL1        0.0000
     67 H           4.2649    0.9275    3.4351 H       1  UNL1        0.0000
     68 H           4.8259   -0.7178    3.1088 H       1  UNL1        0.0000
     69 H           1.5088   -2.4806   -0.1780 H       1  UNL1        0.0000
     70 H          -0.0636   -2.8863    0.5512 H       1  UNL1        0.0000
     71 H           1.3952   -3.7855    0.9950 H       1  UNL1        0.0000
@<TRIPOS>BOND
     1    69    45    1
     2    56    31    1
     3    58    31    1
     4    70    45    1
     5    45    71    1
     6    45    35    1
     7    31    57    1
     8    31    21    1
     9    46    20    1
    10    59    34    1
    11    35    34    1
    12    35    14    2
    13    21    20    2
    14    21     9    1
    15    34    33    2
    16    20    19    1
    17    14    32    1
    18    10     9    1
    19     9    18    1
    20    54    30    1
    21    68    44    1
    22    55    30    1
    23    33    44    1
    24    33    13    1
    25    19    30    1
    26    19     8    1
    27    67    44    1
    28    32    13    1
    29    32    15    1
    30    30    53    1
    31    44    66    1
    32    18     8    1
    33    18    11    2
    34    13     1    1
    35     8     1    1
    36    16    15    1
    37    15    17    1
    38    11    12    1
    39    61    37    1
    40    48    23    1
    41    17     1    1
    42    17    36    1
    43     1    12    1
    44     1     2    1
    45     1     5    1
    46    12    22    1
    47    37    60    1
    48    37    36    1
    49    37    62    1
    50    36    38    1
    51    23    22    1
    52    23    49    1
    53    23    47    1
    54    22    24    1
    55     2    25    1
    56     5    39    1
    57    38    39   ar
    58    38    43   ar
    59    24    25   ar
    60    24    29   ar
    61    25    26   ar
    62    39    40   ar
    63    65    43    1
    64    52    29    1
    65    43    42   ar
    66    29    28   ar
    67    26    50    1
    68    26    27   ar
    69    40    63    1
    70    40    41   ar
    71    28    27   ar
    72    28    51    1
    73    27     3    1
    74    42    41   ar
    75    42    64    1
    76    41     6    1
    77     3     4    1
    78     7     6    1
