@<TRIPOS>MOLECULE
CSD_code = ECIXIY | q = 1 | S = 0 | Stoichiometry = C34H28CoN10(1+) | MND = 6
 73 82 0 0 0
SMALL
GASTEIGER

@<TRIPOS>ATOM
      1 CO          8.3560    4.3853   11.2076 Co.oh   1  UNL1        0.0000
      2 N           9.3710    3.7326    9.6874 N.pl3   1  UNL1        0.5000
      3 N           8.0216    5.3526    8.7289 N.pl3   1  UNL1        0.5000
      4 N           7.5914    5.4119    9.9419 N.pl3   1  UNL1        0.0000
      5 N           7.1119    5.2467   12.3987 N.pl3   1  UNL1        0.0000
      6 N           8.6919    5.8183   14.6803 N.pl3   1  UNL1        0.0000
      7 H           9.0451    6.0653   13.7718 H       1  UNL1        0.0000
      8 H           9.3619    5.8039   15.4299 H       1  UNL1        0.0000
      9 N           7.0789    2.9261   11.1215 N.pl3   1  UNL1        0.5000
     10 N           8.5382    2.2160   12.7739 N.pl3   1  UNL1        0.5000
     11 N           9.1140    3.3210   12.4461 N.pl3   1  UNL1        0.0000
     12 N           9.8519    5.5470   11.5552 N.pl3   1  UNL1        0.0000
     13 N           8.6615    8.1171   11.6435 N.pl3   1  UNL1        0.0000
     14 H           8.2413    7.3705   12.1699 H       1  UNL1        0.0000
     15 H           8.0932    8.9335   11.4969 H       1  UNL1        0.0000
     16 C          10.3492    2.8379    9.5781 C.3     1  UNL1        0.0000
     17 H          10.5836    2.2593   10.4620 H       1  UNL1        0.0000
     18 C          11.0444    2.6330    8.4032 C.2     1  UNL1        0.0000
     19 H          11.8228    1.8895    8.3648 H       1  UNL1        0.0000
     20 C          10.7194    3.3965    7.2827 C.2     1  UNL1        0.0000
     21 H          11.2538    3.2581    6.3560 H       1  UNL1        0.0000
     22 C           9.7096    4.3248    7.3767 C.2     1  UNL1        0.0000
     23 H           9.4136    4.9487    6.5508 H       1  UNL1        0.0000
     24 C           9.0403    4.4777    8.5984 C.2     1  UNL1        0.0000
     25 C           6.5365    6.1450   10.3143 C.ar    1  UNL1        0.0000
     26 C           5.7503    6.9773    9.4907 C.ar    1  UNL1        0.0000
     27 H           6.0254    7.0829    8.4534 H       1  UNL1        0.0000
     28 C           4.6725    7.6132   10.0360 C.ar    1  UNL1        0.0000
     29 H           4.0519    8.2523    9.4288 H       1  UNL1        0.0000
     30 C           4.3576    7.4450   11.4017 C.ar    1  UNL1        0.0000
     31 H           3.5041    7.9684   11.8048 H       1  UNL1        0.0000
     32 C           5.1048    6.6497   12.2247 C.ar    1  UNL1        0.0000
     33 H           4.8657    6.5464   13.2715 H       1  UNL1        0.0000
     34 C           6.2352    5.9757   11.7037 C.ar    1  UNL1        0.0000
     35 C           6.7745    4.7502   13.6645 C.ar    1  UNL1        0.0000
     36 C           5.6168    3.9850   13.8292 C.ar    1  UNL1        0.0000
     37 H           4.9673    3.8402   12.9765 H       1  UNL1        0.0000
     38 C           5.3149    3.4065   15.0421 C.ar    1  UNL1        0.0000
     39 H           4.4222    2.8112   15.1479 H       1  UNL1        0.0000
     40 C           6.1726    3.5879   16.1202 C.ar    1  UNL1        0.0000
     41 H           5.9487    3.1281   17.0698 H       1  UNL1        0.0000
     42 C           7.3071    4.3569   15.9840 C.ar    1  UNL1        0.0000
     43 H           7.9659    4.5100   16.8256 H       1  UNL1        0.0000
     44 C           7.6303    4.9615   14.7664 C.ar    1  UNL1        0.0000
     45 C           5.9685    2.7453   10.4118 C.3     1  UNL1        0.0000
     46 H           5.7544    3.4769    9.6438 H       1  UNL1        0.0000
     47 C           5.1154    1.6802   10.6205 C.2     1  UNL1        0.0000
     48 H           4.2327    1.5746   10.0122 H       1  UNL1        0.0000
     49 C           5.4187    0.7560   11.6194 C.2     1  UNL1        0.0000
     50 H           4.7629   -0.0801   11.8047 H       1  UNL1        0.0000
     51 C           6.5636    0.9258   12.3614 C.2     1  UNL1        0.0000
     52 H           6.8519    0.2514   13.1496 H       1  UNL1        0.0000
     53 C           7.3889    2.0261   12.0932 C.2     1  UNL1        0.0000
     54 C          10.3040    3.7013   12.9235 C.ar    1  UNL1        0.0000
     55 C          11.1026    3.0088   13.8573 C.ar    1  UNL1        0.0000
     56 H          10.7251    2.0896   14.2759 H       1  UNL1        0.0000
     57 C          12.3205    3.5261   14.1925 C.ar    1  UNL1        0.0000
     58 H          12.9532    3.0160   14.9011 H       1  UNL1        0.0000
     59 C          12.7668    4.7362   13.6188 C.ar    1  UNL1        0.0000
     60 H          13.7308    5.1236   13.9113 H       1  UNL1        0.0000
     61 C          12.0121    5.4313   12.7158 C.ar    1  UNL1        0.0000
     62 H          12.3558    6.3658   12.3008 H       1  UNL1        0.0000
     63 C          10.7395    4.9359   12.3439 C.ar    1  UNL1        0.0000
     64 C          10.2601    6.5719   10.6919 C.ar    1  UNL1        0.0000
     65 C          11.3008    6.3490    9.7861 C.ar    1  UNL1        0.0000
     66 H          11.8129    5.3966    9.8115 H       1  UNL1        0.0000
     67 C          11.6569    7.3080    8.8640 C.ar    1  UNL1        0.0000
     68 H          12.4558    7.1145    8.1663 H       1  UNL1        0.0000
     69 C          10.9735    8.5176    8.8347 C.ar    1  UNL1        0.0000
     70 H          11.2392    9.2687    8.1077 H       1  UNL1        0.0000
     71 C           9.9594    8.7648    9.7332 C.ar    1  UNL1        0.0000
     72 H           9.4380    9.7102    9.7199 H       1  UNL1        0.0000
     73 C           9.5854    7.8111   10.6836 C.ar    1  UNL1        0.0000
@<TRIPOS>BOND
     1    21    20    1
     2    23    22    1
     3    20    22    1
     4    20    18    2
     5    22    24    2
     6    70    69    1
     7    68    67    1
     8    19    18    1
     9    18    16    1
    10    27    26    1
    11    24     3    1
    12    24     2    1
    13     3     4    1
    14    69    67   ar
    15    69    71   ar
    16    67    65   ar
    17    29    28    1
    18    26    28   ar
    19    26    25   ar
    20    16     2    1
    21    16    17    1
    22    46    45    1
    23     2     1    1
    24    72    71    1
    25    71    73   ar
    26    65    66    1
    27    65    64   ar
    28     4    25    1
    29     4     1    1
    30    48    47    1
    31    28    30   ar
    32    25    34   ar
    33    45    47    1
    34    45     9    1
    35    47    49    2
    36    73    64   ar
    37    73    13    1
    38    64    12    1
    39     9     1    1
    40     9    53    1
    41     1    12    1
    42     1     5    1
    43     1    11    1
    44    30    31    1
    45    30    32   ar
    46    15    13    1
    47    12    63    1
    48    49    50    1
    49    49    51    1
    50    13    14    1
    51    34    32   ar
    52    34     5    1
    53    53    51    2
    54    53    10    1
    55    32    33    1
    56    62    61    1
    57    63    61   ar
    58    63    54   ar
    59    51    52    1
    60     5    35    1
    61    11    10    1
    62    11    54    1
    63    61    59   ar
    64    54    55   ar
    65    37    36    1
    66    59    60    1
    67    59    57   ar
    68    35    36   ar
    69    35    44   ar
    70     7     6    1
    71    36    38   ar
    72    55    57   ar
    73    55    56    1
    74    57    58    1
    75     6    44    1
    76     6     8    1
    77    44    42   ar
    78    38    39    1
    79    38    40   ar
    80    42    40   ar
    81    42    43    1
    82    40    41    1
