@<TRIPOS>MOLECULE
CSD_code = EFAHOI | q = 0 | S = 0 | Stoichiometry = C37H54CoN3Si | MND = 4
 96 100 0 0 0
SMALL
GASTEIGER

@<TRIPOS>ATOM
      1 CO          0.3484    1.2070    3.5962 Co.oh   1  UNL1        0.0000
      2 SI         -0.2545    3.0542    6.4546 Si      1  UNL1        0.0000
      3 C           0.5571    1.6221    5.5125 C.3     1  UNL1        0.0000
      4 H           0.2816    0.7152    6.0564 H       1  UNL1        0.0000
      5 H           1.6334    1.7305    5.6671 H       1  UNL1        0.0000
      6 C          -0.0896    4.7664    5.6256 C.3     1  UNL1        0.0000
      7 H           0.9503    5.0492    5.5039 H       1  UNL1        0.0000
      8 H          -0.5723    5.5345    6.2233 H       1  UNL1        0.0000
      9 H          -0.5471    4.7762    4.6430 H       1  UNL1        0.0000
     10 C           0.5903    3.2263    8.1767 C.3     1  UNL1        0.0000
     11 H           0.8002    2.2584    8.6230 H       1  UNL1        0.0000
     12 H          -0.0432    3.7720    8.8699 H       1  UNL1        0.0000
     13 H           1.5305    3.7653    8.1082 H       1  UNL1        0.0000
     14 C          -2.1056    2.7921    6.8535 C.3     1  UNL1        0.0000
     15 H          -2.7095    2.7033    5.9592 H       1  UNL1        0.0000
     16 H          -2.4936    3.6262    7.4317 H       1  UNL1        0.0000
     17 H          -2.2642    1.8903    7.4354 H       1  UNL1        0.0000
     18 N           1.8951    2.1979    2.9660 N.pl3   1  UNL1        0.0000
     19 N          -1.1272   -0.0404    3.7616 N.pl3   1  UNL1        0.0000
     20 N           0.7502    0.1658    2.2144 N.pl3   1  UNL1        0.0000
     21 C           3.8224    2.0355    1.3775 C.3     1  UNL1        0.0000
     22 H           4.0329    3.0705    1.6335 H       1  UNL1        0.0000
     23 H           3.7433    1.9430    0.2949 H       1  UNL1        0.0000
     24 H           4.6577    1.4122    1.6981 H       1  UNL1        0.0000
     25 C           2.5619    1.5572    2.0313 C.2     1  UNL1        0.0000
     26 C           1.9744    0.3162    1.6365 C.2     1  UNL1        0.0000
     27 C           2.4983   -0.6604    0.7950 C.2     1  UNL1        0.0000
     28 H           3.4661   -0.5233    0.3393 H       1  UNL1        0.0000
     29 C           1.7678   -1.8172    0.5632 C.2     1  UNL1        0.0000
     30 H           2.1520   -2.5785   -0.0981 H       1  UNL1        0.0000
     31 C           0.5593   -2.0085    1.2202 C.2     1  UNL1        0.0000
     32 H           0.0043   -2.9245    1.0931 H       1  UNL1        0.0000
     33 C           0.0835   -1.0123    2.0649 C.2     1  UNL1        0.0000
     34 C          -1.0781   -1.0294    2.8982 C.3     1  UNL1        0.0000
     35 C          -2.1348   -2.0751    2.7158 C.3     1  UNL1        0.0000
     36 H          -2.9581   -1.9323    3.4104 H       1  UNL1        0.0000
     37 H          -1.7101   -3.0679    2.8611 H       1  UNL1        0.0000
     38 H          -2.5217   -2.0280    1.6975 H       1  UNL1        0.0000
     39 C           2.3342    3.4972    3.3201 C.ar    1  UNL1        0.0000
     40 C           3.3799    3.6967    4.2350 C.ar    1  UNL1        0.0000
     41 C           3.7619    4.9971    4.5380 C.ar    1  UNL1        0.0000
     42 H           4.5581    5.1640    5.2473 H       1  UNL1        0.0000
     43 C           3.1591    6.0820    3.9357 C.ar    1  UNL1        0.0000
     44 H           3.4781    7.0851    4.1777 H       1  UNL1        0.0000
     45 C           2.1542    5.8772    3.0098 C.ar    1  UNL1        0.0000
     46 H           1.7046    6.7298    2.5267 H       1  UNL1        0.0000
     47 C           1.7235    4.5984    2.6938 C.ar    1  UNL1        0.0000
     48 C           4.1416    2.5540    4.8721 C.3     1  UNL1        0.0000
     49 H           3.6857    1.6099    4.5581 H       1  UNL1        0.0000
     50 C           4.0981    2.6286    6.4013 C.3     1  UNL1        0.0000
     51 H           4.6606    3.4854    6.7643 H       1  UNL1        0.0000
     52 H           4.5392    1.7297    6.8276 H       1  UNL1        0.0000
     53 H           3.0766    2.7163    6.7582 H       1  UNL1        0.0000
     54 C           5.6079    2.5614    4.4235 C.3     1  UNL1        0.0000
     55 H           5.6970    2.5615    3.3413 H       1  UNL1        0.0000
     56 H           6.1184    1.6825    4.8122 H       1  UNL1        0.0000
     57 H           6.1179    3.4445    4.8014 H       1  UNL1        0.0000
     58 C           0.6511    4.3904    1.6470 C.3     1  UNL1        0.0000
     59 H           0.1682    3.4261    1.8507 H       1  UNL1        0.0000
     60 C           1.2787    4.3259    0.2502 C.3     1  UNL1        0.0000
     61 H           0.4996    4.2497   -0.5058 H       1  UNL1        0.0000
     62 H           1.9301    3.4634    0.1544 H       1  UNL1        0.0000
     63 H           1.8617    5.2244    0.0554 H       1  UNL1        0.0000
     64 C          -0.4213    5.4802    1.6625 C.3     1  UNL1        0.0000
     65 H          -0.7999    5.6411    2.6682 H       1  UNL1        0.0000
     66 H          -1.2520    5.1888    1.0226 H       1  UNL1        0.0000
     67 H          -0.0317    6.4216    1.2825 H       1  UNL1        0.0000
     68 C          -2.2762    0.0492    4.5834 C.ar    1  UNL1        0.0000
     69 C          -3.3689    0.8089    4.1318 C.ar    1  UNL1        0.0000
     70 C          -4.5003    0.8966    4.9264 C.ar    1  UNL1        0.0000
     71 H          -5.3424    1.4871    4.6036 H       1  UNL1        0.0000
     72 C          -4.5741    0.2243    6.1326 C.ar    1  UNL1        0.0000
     73 H          -5.4653    0.2971    6.7381 H       1  UNL1        0.0000
     74 C          -3.5099   -0.5454    6.5538 C.ar    1  UNL1        0.0000
     75 H          -3.5833   -1.0813    7.4877 H       1  UNL1        0.0000
     76 C          -2.3511   -0.6500    5.7953 C.ar    1  UNL1        0.0000
     77 C          -3.2746    1.5242    2.8029 C.3     1  UNL1        0.0000
     78 H          -2.7301    0.8759    2.1068 H       1  UNL1        0.0000
     79 C          -2.4633    2.8090    2.9800 C.3     1  UNL1        0.0000
     80 H          -2.9532    3.4760    3.6859 H       1  UNL1        0.0000
     81 H          -2.3630    3.3217    2.0271 H       1  UNL1        0.0000
     82 H          -1.4606    2.5717    3.3702 H       1  UNL1        0.0000
     83 C          -4.6311    1.8365    2.1727 C.3     1  UNL1        0.0000
     84 H          -5.2599    0.9491    2.1436 H       1  UNL1        0.0000
     85 H          -4.4862    2.1869    1.1526 H       1  UNL1        0.0000
     86 H          -5.1506    2.6185    2.7214 H       1  UNL1        0.0000
     87 C          -1.2296   -1.5410    6.2822 C.3     1  UNL1        0.0000
     88 H          -0.3660   -1.4050    5.6239 H       1  UNL1        0.0000
     89 C          -0.8099   -1.1846    7.7118 C.3     1  UNL1        0.0000
     90 H          -0.6368   -0.1159    7.8100 H       1  UNL1        0.0000
     91 H           0.1075   -1.7099    7.9699 H       1  UNL1        0.0000
     92 H          -1.5761   -1.4739    8.4270 H       1  UNL1        0.0000
     93 C          -1.6470   -3.0143    6.2295 C.3     1  UNL1        0.0000
     94 H          -2.5068   -3.1919    6.8717 H       1  UNL1        0.0000
     95 H          -0.8283   -3.6446    6.5707 H       1  UNL1        0.0000
     96 H          -1.9110   -3.3123    5.2189 H       1  UNL1        0.0000
@<TRIPOS>BOND
     1    61    60    1
     2    30    29    1
     3    63    60    1
     4    62    60    1
     5    60    58    1
     6    23    21    1
     7    28    27    1
     8    29    27    2
     9    29    31    1
    10    27    26    1
    11    66    64    1
    12    32    31    1
    13    85    83    1
    14    31    33    2
    15    67    64    1
    16    21    22    1
    17    21    24    1
    18    21    25    1
    19    26    25    2
    20    26    20    1
    21    58    64    1
    22    58    59    1
    23    58    47    1
    24    64    65    1
    25    38    35    1
    26    81    79    1
    27    25    18    1
    28    33    20    1
    29    33    34    1
    30    78    77    1
    31    84    83    1
    32    83    86    1
    33    83    77    1
    34    20     1    1
    35    46    45    1
    36    47    45   ar
    37    47    39   ar
    38    35    37    1
    39    35    34    1
    40    35    36    1
    41    77    79    1
    42    77    69    1
    43    34    19    1
    44    18    39    1
    45    18     1    1
    46    79    82    1
    47    79    80    1
    48    45    43   ar
    49    39    40   ar
    50    55    54    1
    51     1    19    1
    52     1     3    1
    53    19    68    1
    54    43    44    1
    55    43    41   ar
    56    69    68   ar
    57    69    70   ar
    58    40    41   ar
    59    40    48    1
    60    54    57    1
    61    54    56    1
    62    54    48    1
    63    41    42    1
    64    49    48    1
    65    68    76   ar
    66    71    70    1
    67     9     6    1
    68    48    50    1
    69    70    72   ar
    70    96    93    1
    71     7     6    1
    72     3     5    1
    73     3     4    1
    74     3     2    1
    75    88    87    1
    76     6     8    1
    77     6     2    1
    78    76    87    1
    79    76    74   ar
    80    15    14    1
    81    72    74   ar
    82    72    73    1
    83    93    87    1
    84    93    95    1
    85    93    94    1
    86    87    89    1
    87    50    53    1
    88    50    51    1
    89    50    52    1
    90     2    14    1
    91     2    10    1
    92    74    75    1
    93    14    16    1
    94    14    17    1
    95    89    90    1
    96    89    91    1
    97    89    92    1
    98    13    10    1
    99    10    11    1
   100    10    12    1
