@<TRIPOS>MOLECULE
CSD_code = EGIXIB | q = 0 | S = 0 | Stoichiometry = C28H21CoN2O2S2 | MND = 6
 56 63 0 0 0
SMALL
GASTEIGER

@<TRIPOS>ATOM
      1 CO          4.2389    9.8093    2.9515 Co.oh   1  UNL1        0.0000
      2 O           2.7927    9.3460    4.1153 O.3     1  UNL1        0.0000
      3 C           2.7239    9.6521    5.3614 C.ar    1  UNL1        0.0000
      4 C           1.7796    8.9835    6.1767 C.ar    1  UNL1        0.0000
      5 H           1.1629    8.2332    5.7050 H       1  UNL1        0.0000
      6 C           1.6599    9.2657    7.5110 C.ar    1  UNL1        0.0000
      7 H           0.9349    8.7313    8.1081 H       1  UNL1        0.0000
      8 C           2.4703   10.2339    8.1118 C.ar    1  UNL1        0.0000
      9 H           2.3702   10.4440    9.1655 H       1  UNL1        0.0000
     10 C           3.3863   10.9096    7.3501 C.ar    1  UNL1        0.0000
     11 H           4.0152   11.6639    7.8031 H       1  UNL1        0.0000
     12 C           3.5357   10.6528    5.9742 C.ar    1  UNL1        0.0000
     13 C           4.4697   11.4234    5.2357 C.3     1  UNL1        0.0000
     14 H           4.9857   12.1899    5.8121 H       1  UNL1        0.0000
     15 N           4.7446   11.3198    3.9698 N.pl3   1  UNL1        0.0000
     16 C           5.5994   12.2394    3.3588 C.ar    1  UNL1        0.0000
     17 C           5.8230   13.5293    3.8478 C.ar    1  UNL1        0.0000
     18 H           5.2796   13.8841    4.7113 H       1  UNL1        0.0000
     19 C           6.7059   14.3801    3.2161 C.ar    1  UNL1        0.0000
     20 H           6.8601   15.3748    3.6066 H       1  UNL1        0.0000
     21 C           7.3882   13.9629    2.0794 C.ar    1  UNL1        0.0000
     22 H           8.0868   14.6276    1.5938 H       1  UNL1        0.0000
     23 C           7.1521   12.7111    1.5566 C.ar    1  UNL1        0.0000
     24 H           7.6479   12.3779    0.6582 H       1  UNL1        0.0000
     25 C           6.2422   11.8504    2.1695 C.ar    1  UNL1        0.0000
     26 S           5.8782   10.3158    1.4643 S.3     1  UNL1        0.0000
     27 O           5.3843    8.8390    4.0393 O.3     1  UNL1        0.0000
     28 C           5.3147    7.5828    4.2601 C.ar    1  UNL1        0.0000
     29 C           6.0734    7.0465    5.3357 C.ar    1  UNL1        0.0000
     30 H           6.6768    7.7385    5.9027 H       1  UNL1        0.0000
     31 C           6.0306    5.7172    5.6450 C.ar    1  UNL1        0.0000
     32 H           6.6121    5.3423    6.4748 H       1  UNL1        0.0000
     33 C           5.2361    4.8294    4.9043 C.ar    1  UNL1        0.0000
     34 H           5.2111    3.7830    5.1663 H       1  UNL1        0.0000
     35 C           4.5042    5.3031    3.8529 C.ar    1  UNL1        0.0000
     36 H           3.8932    4.6292    3.2682 H       1  UNL1        0.0000
     37 C           4.5249    6.6686    3.4936 C.ar    1  UNL1        0.0000
     38 C           3.7940    7.0881    2.3648 C.3     1  UNL1        0.0000
     39 H           3.2621    6.2973    1.8358 H       1  UNL1        0.0000
     40 N           3.7030    8.3068    1.9125 N.pl3   1  UNL1        0.0000
     41 C           3.0559    8.5461    0.7050 C.ar    1  UNL1        0.0000
     42 C           2.9260    7.5863   -0.3068 C.ar    1  UNL1        0.0000
     43 H           3.3907    6.6192   -0.1941 H       1  UNL1        0.0000
     44 C           2.2463    7.8734   -1.4736 C.ar    1  UNL1        0.0000
     45 H           2.1644    7.1145   -2.2372 H       1  UNL1        0.0000
     46 C           1.6832    9.1234   -1.6790 C.ar    1  UNL1        0.0000
     47 H           1.1509    9.3411   -2.5915 H       1  UNL1        0.0000
     48 C           1.8442   10.1040   -0.7170 C.ar    1  UNL1        0.0000
     49 H           1.4531   11.0987   -0.8669 H       1  UNL1        0.0000
     50 C           2.5281    9.8173    0.4508 C.ar    1  UNL1        0.0000
     51 S           2.8014   11.1235    1.6342 S.3     1  UNL1        0.0000
     52 C           1.2253   11.1268    2.4502 C.2     1  UNL1        0.0000
     53 H           0.5278   10.4045    2.0569 H       1  UNL1        0.0000
     54 C           0.9461   11.9531    3.4402 C.2     1  UNL1        0.0000
     55 H           1.6727   12.6542    3.8140 H       1  UNL1        0.0000
     56 H          -0.0136   11.9397    3.9267 H       1  UNL1        0.0000
@<TRIPOS>BOND
     1    47    46    1
     2    45    44    1
     3    46    44   ar
     4    46    48   ar
     5    44    42   ar
     6    49    48    1
     7    48    50   ar
     8    42    43    1
     9    42    41   ar
    10    50    41   ar
    11    50    51    1
    12    24    23    1
    13    41    40    1
    14    26    25    1
    15    26     1    1
    16    23    21   ar
    17    23    25   ar
    18    22    21    1
    19    51    52    1
    20    51     1    1
    21    39    38    1
    22    40    38    1
    23    40     1    1
    24    53    52    1
    25    21    19   ar
    26    25    16   ar
    27    38    37    1
    28    52    54    2
    29     1    15    1
    30     1    27    1
    31     1     2    1
    32    19    20    1
    33    19    17   ar
    34    36    35    1
    35    16    17   ar
    36    16    15    1
    37    54    55    1
    38    54    56    1
    39    37    35   ar
    40    37    28   ar
    41    17    18    1
    42    35    33   ar
    43    15    13    1
    44    27    28    1
    45     2     3    1
    46    28    29   ar
    47    33    34    1
    48    33    31   ar
    49    13    14    1
    50    13    12    1
    51    29    31   ar
    52    29    30    1
    53     3    12   ar
    54     3     4   ar
    55    31    32    1
    56     5     4    1
    57    12    10   ar
    58     4     6   ar
    59    10    11    1
    60    10     8   ar
    61     6     7    1
    62     6     8   ar
    63     8     9    1
