@<TRIPOS>MOLECULE
CSD_code = EGOJOB | q = 1 | S = 0 | Stoichiometry = C18H22CoN4O2(1+) | MND = 6
 47 52 0 0 0
SMALL
GASTEIGER

@<TRIPOS>ATOM
      1 CO          5.3542    6.1589   21.2116 Co.oh   1  UNL1        0.0000
      2 O           6.6749    7.1339   20.3696 O.3     1  UNL1        0.0000
      3 O           4.6383    5.6829   19.5791 O.3     1  UNL1        0.0000
      4 N           6.1894    6.7530   23.0058 N.4     1  UNL1        0.0000
      5 H           5.8198    6.2979   23.8398 H       1  UNL1        0.0000
      6 H           7.1965    6.5992   23.0099 H       1  UNL1        0.0000
      7 N           6.3305    4.5510   21.1649 N.3     1  UNL1        0.0000
      8 N           4.3600    7.7520   21.3292 N.3     1  UNL1        0.0000
      9 N           3.8659    5.0261   22.0901 N.4     1  UNL1        0.0000
     10 H           3.7851    5.1084   23.1031 H       1  UNL1        0.0000
     11 H           2.9523    5.2578   21.7035 H       1  UNL1        0.0000
     12 C           7.6206    6.6515   19.6299 C.ar    1  UNL1        0.0000
     13 C           7.3371    4.3136   20.3958 C.3     1  UNL1        0.0000
     14 H           7.7229    3.2948   20.3386 H       1  UNL1        0.0000
     15 C           3.7817    8.3435   20.3409 C.3     1  UNL1        0.0000
     16 H           3.3702    9.3416   20.4968 H       1  UNL1        0.0000
     17 C           8.0145    5.2817   19.6140 C.ar    1  UNL1        0.0000
     18 C           4.0815    6.4859   18.7308 C.ar    1  UNL1        0.0000
     19 C           5.9242    8.1995   23.0861 C.3     1  UNL1        0.0000
     20 H           6.6093    8.7049   22.4037 H       1  UNL1        0.0000
     21 H           6.0642    8.5905   24.0985 H       1  UNL1        0.0000
     22 C           3.6129    7.7947   19.0456 C.ar    1  UNL1        0.0000
     23 C           9.0909    4.8782   18.7974 C.ar    1  UNL1        0.0000
     24 H           9.3711    3.8349   18.7945 H       1  UNL1        0.0000
     25 C           4.4951    8.4307   22.6010 C.3     1  UNL1        0.0000
     26 H           3.7840    7.9999   23.3174 H       1  UNL1        0.0000
     27 H           4.2870    9.5015   22.5107 H       1  UNL1        0.0000
     28 C           3.2575    6.7930   16.4688 C.ar    1  UNL1        0.0000
     29 H           3.1223    6.4079   15.4695 H       1  UNL1        0.0000
     30 C           5.7055    3.4683   21.8951 C.3     1  UNL1        0.0000
     31 H           5.9833    3.5399   22.9544 H       1  UNL1        0.0000
     32 H           6.0264    2.4912   21.5203 H       1  UNL1        0.0000
     33 C           2.8010    8.0780   16.7813 C.ar    1  UNL1        0.0000
     34 H           2.3162    8.6762   16.0269 H       1  UNL1        0.0000
     35 C           2.9798    8.5641   18.0479 C.ar    1  UNL1        0.0000
     36 H           2.6362    9.5557   18.3038 H       1  UNL1        0.0000
     37 C           8.3457    7.5505   18.8142 C.ar    1  UNL1        0.0000
     38 H           8.0460    8.5869   18.8280 H       1  UNL1        0.0000
     39 C           3.8809    6.0184   17.4116 C.ar    1  UNL1        0.0000
     40 H           4.2367    5.0276   17.1757 H       1  UNL1        0.0000
     41 C           9.7710    5.7770   18.0215 C.ar    1  UNL1        0.0000
     42 H          10.5918    5.4561   17.4009 H       1  UNL1        0.0000
     43 C           9.3896    7.1229   18.0366 C.ar    1  UNL1        0.0000
     44 H           9.9210    7.8342   17.4226 H       1  UNL1        0.0000
     45 C           4.1953    3.6334   21.7426 C.3     1  UNL1        0.0000
     46 H           3.9323    3.4774   20.6952 H       1  UNL1        0.0000
     47 H           3.6560    2.9127   22.3648 H       1  UNL1        0.0000
@<TRIPOS>BOND
     1    29    28    1
     2    34    33    1
     3    28    33   ar
     4    28    39   ar
     5    33    35   ar
     6    40    39    1
     7    42    41    1
     8    39    18   ar
     9    44    43    1
    10    41    43   ar
    11    41    23   ar
    12    43    37   ar
    13    35    36    1
    14    35    22   ar
    15    18    22   ar
    16    18     3    1
    17    24    23    1
    18    23    17   ar
    19    37    38    1
    20    37    12   ar
    21    22    15    1
    22     3     1    1
    23    17    12   ar
    24    17    13    1
    25    12     2    1
    26    14    13    1
    27    15    16    1
    28    15     8    1
    29     2     1    1
    30    13     7    1
    31    46    45    1
    32     7     1    1
    33     7    30    1
    34     1     8    1
    35     1     9    1
    36     1     4    1
    37     8    25    1
    38    32    30    1
    39    11     9    1
    40    45    30    1
    41    45     9    1
    42    45    47    1
    43    30    31    1
    44     9    10    1
    45    20    19    1
    46    27    25    1
    47    25    19    1
    48    25    26    1
    49     4     6    1
    50     4    19    1
    51     4     5    1
    52    19    21    1
