@<TRIPOS>MOLECULE
CSD_code = ESABAD | q = 1 | S = 0 | Stoichiometry = C36H30CoN4O2(1+) | MND = 6
 73 82 0 0 0
SMALL
GASTEIGER

@<TRIPOS>ATOM
      1 CO         -5.0806    5.7056   13.6439 Co.oh   1  UNL1        0.0000
      2 N          -4.9760    3.7798   13.8239 N.pl3   1  UNL1        0.0000
      3 N          -4.0297    5.4703   12.0609 N.3     1  UNL1        0.0000
      4 C          -2.3571    6.3106   14.2504 C.ar    1  UNL1        0.0000
      5 C          -2.8302    5.9349   11.9030 C.3     1  UNL1        0.0000
      6 H          -2.3622    5.7877   10.9299 H       1  UNL1        0.0000
      7 C          -4.7193    3.2814   15.0362 C.3     1  UNL1        0.0000
      8 H          -4.6703    3.9894   15.8477 H       1  UNL1        0.0000
      9 C          -1.3791    6.6090   15.2485 C.ar    1  UNL1        0.0000
     10 H          -1.6272    6.3739   16.2731 H       1  UNL1        0.0000
     11 C          -4.4991    1.9410   15.2791 C.2     1  UNL1        0.0000
     12 H          -4.3007    1.6008   16.2822 H       1  UNL1        0.0000
     13 C          -0.1834    7.1584   14.9216 C.ar    1  UNL1        0.0000
     14 H           0.5404    7.3777   15.6933 H       1  UNL1        0.0000
     15 C          -5.0077    2.9380   12.7822 C.2     1  UNL1        0.0000
     16 C          -5.3477    3.4418   11.4123 C.3     1  UNL1        0.0000
     17 H          -6.4209    3.6383   11.4022 H       1  UNL1        0.0000
     18 H          -5.1566    2.6503   10.6872 H       1  UNL1        0.0000
     19 C           0.1455    7.4800   13.5799 C.ar    1  UNL1        0.0000
     20 C          -4.7854    1.5731   12.9544 C.2     1  UNL1        0.0000
     21 H          -4.8154    0.9219   12.0950 H       1  UNL1        0.0000
     22 C          -0.7777    7.1704   12.5512 C.ar    1  UNL1        0.0000
     23 C          -4.5321    1.0587   14.2107 C.2     1  UNL1        0.0000
     24 H          -4.3599    0.0034   14.3522 H       1  UNL1        0.0000
     25 C          -4.5932    4.7110   10.9646 C.3     1  UNL1        0.0000
     26 H          -3.7904    4.4181   10.2781 H       1  UNL1        0.0000
     27 H          -5.2941    5.3462   10.4127 H       1  UNL1        0.0000
     28 C           1.6719    8.4264   11.9684 C.ar    1  UNL1        0.0000
     29 H           2.6104    8.9013   11.7289 H       1  UNL1        0.0000
     30 C           1.3659    8.1007   13.2638 C.ar    1  UNL1        0.0000
     31 H           2.0576    8.3211   14.0634 H       1  UNL1        0.0000
     32 C           0.7530    8.1503   10.9534 C.ar    1  UNL1        0.0000
     33 H           0.9860    8.4243    9.9355 H       1  UNL1        0.0000
     34 C          -0.4452    7.5424   11.2379 C.ar    1  UNL1        0.0000
     35 H          -1.1441    7.3707   10.4332 H       1  UNL1        0.0000
     36 C          -2.0166    6.5275   12.8931 C.ar    1  UNL1        0.0000
     37 O          -3.4774    5.8130   14.6388 O.3     1  UNL1        0.0000
     38 N          -5.1851    7.6315   13.4638 N.pl3   1  UNL1        0.0000
     39 N          -6.1314    5.9410   15.2268 N.3     1  UNL1        0.0000
     40 C          -7.8040    5.1007   13.0373 C.ar    1  UNL1        0.0000
     41 C          -7.3309    5.4763   15.3847 C.3     1  UNL1        0.0000
     42 H          -7.7989    5.6236   16.3578 H       1  UNL1        0.0000
     43 C          -5.4418    8.1299   12.2515 C.3     1  UNL1        0.0000
     44 H          -5.4908    7.4219   11.4400 H       1  UNL1        0.0000
     45 C          -8.7820    4.8023   12.0393 C.ar    1  UNL1        0.0000
     46 H          -8.5340    5.0374   11.0146 H       1  UNL1        0.0000
     47 C          -5.6621    9.4703   12.0086 C.2     1  UNL1        0.0000
     48 H          -5.8604    9.8105   11.0056 H       1  UNL1        0.0000
     49 C          -9.9777    4.2529   12.3662 C.ar    1  UNL1        0.0000
     50 H         -10.7015    4.0336   11.5945 H       1  UNL1        0.0000
     51 C          -5.1534    8.4733   14.5055 C.2     1  UNL1        0.0000
     52 C          -4.8134    7.9695   15.8754 C.3     1  UNL1        0.0000
     53 H          -3.7402    7.7730   15.8856 H       1  UNL1        0.0000
     54 H          -5.0045    8.7610   16.6005 H       1  UNL1        0.0000
     55 C         -10.3066    3.9313   13.7078 C.ar    1  UNL1        0.0000
     56 C          -5.3757    9.8382   14.3334 C.2     1  UNL1        0.0000
     57 H          -5.3457   10.4893   15.1927 H       1  UNL1        0.0000
     58 C          -9.3834    4.2408   14.7365 C.ar    1  UNL1        0.0000
     59 C          -5.6290   10.3525   13.0770 C.2     1  UNL1        0.0000
     60 H          -5.8012   11.4079   12.9355 H       1  UNL1        0.0000
     61 C          -5.5679    6.7003   16.3231 C.3     1  UNL1        0.0000
     62 H          -6.3707    6.9932   17.0096 H       1  UNL1        0.0000
     63 H          -4.8670    6.0651   16.8750 H       1  UNL1        0.0000
     64 C         -11.8330    2.9849   15.3194 C.ar    1  UNL1        0.0000
     65 H         -12.7716    2.5100   15.5589 H       1  UNL1        0.0000
     66 C         -11.5270    3.3106   14.0239 C.ar    1  UNL1        0.0000
     67 H         -12.2187    3.0902   13.2243 H       1  UNL1        0.0000
     68 C         -10.9142    3.2610   16.3343 C.ar    1  UNL1        0.0000
     69 H         -11.1471    2.9869   17.3522 H       1  UNL1        0.0000
     70 C          -9.7159    3.8688   16.0499 C.ar    1  UNL1        0.0000
     71 H          -9.0170    4.0406   16.8545 H       1  UNL1        0.0000
     72 C          -8.1445    4.8838   14.3946 C.ar    1  UNL1        0.0000
     73 O          -6.6837    5.5983   12.6490 O.3     1  UNL1        0.0000
@<TRIPOS>BOND
     1    33    32    1
     2    26    25    1
     3    27    25    1
     4    35    34    1
     5    18    16    1
     6     6     5    1
     7    32    34   ar
     8    32    28   ar
     9    25    16    1
    10    25     3    1
    11    48    47    1
    12    46    45    1
    13    34    22   ar
    14    17    16    1
    15    16    15    1
    16    44    43    1
    17    50    49    1
    18    29    28    1
    19     5     3    1
    20     5    36    1
    21    28    30   ar
    22    47    43    1
    23    47    59    2
    24    45    49   ar
    25    45    40   ar
    26     3     1    1
    27    21    20    1
    28    43    38    1
    29    49    55   ar
    30    22    36   ar
    31    22    19   ar
    32    73    40    1
    33    73     1    1
    34    15    20    2
    35    15     2    1
    36    36     4   ar
    37    60    59    1
    38    20    23    1
    39    40    72   ar
    40    59    56    1
    41    67    66    1
    42    30    19   ar
    43    30    31    1
    44    38     1    1
    45    38    51    1
    46    19    13   ar
    47     1     2    1
    48     1    37    1
    49     1    39    1
    50    55    66   ar
    51    55    58   ar
    52     2     7    1
    53    66    64   ar
    54    23    24    1
    55    23    11    2
    56     4    37    1
    57     4     9   ar
    58    56    51    2
    59    56    57    1
    60    72    58   ar
    61    72    41    1
    62    51    52    1
    63    58    70   ar
    64    13     9   ar
    65    13    14    1
    66     7    11    1
    67     7     8    1
    68    39    41    1
    69    39    61    1
    70     9    10    1
    71    11    12    1
    72    64    65    1
    73    64    68   ar
    74    41    42    1
    75    52    53    1
    76    52    61    1
    77    52    54    1
    78    70    68   ar
    79    70    71    1
    80    61    63    1
    81    61    62    1
    82    68    69    1
