@<TRIPOS>MOLECULE
CSD_code = ESOCEV | q = 1 | S = 0 | Stoichiometry = C24H20CoN6O3(1+) | MND = 6
 54 61 0 0 0
SMALL
GASTEIGER

@<TRIPOS>ATOM
      1 CO          4.1662   10.1621    6.4741 Co.oh   1  UNL1        0.0000
      2 C           3.7291    8.7885    3.9363 C.1     1  UNL1        0.0000
      3 C           5.4810   12.7774    6.5249 C.3     1  UNL1        0.0000
      4 H           5.8479   12.4962    7.5013 H       1  UNL1        0.0000
      5 C           5.7820   14.0013    5.9526 C.2     1  UNL1        0.0000
      6 H           6.4138   14.6973    6.4803 H       1  UNL1        0.0000
      7 C           5.2642   14.3138    4.7033 C.2     1  UNL1        0.0000
      8 H           5.4930   15.2573    4.2330 H       1  UNL1        0.0000
      9 C           4.4414   13.3956    4.0689 C.2     1  UNL1        0.0000
     10 H           4.0063   13.5738    3.0992 H       1  UNL1        0.0000
     11 C           4.1908   12.2005    4.7142 C.2     1  UNL1        0.0000
     12 C           3.3014   11.0856    4.1942 C.3     1  UNL1        0.0000
     13 C           2.0753   11.1652    5.1101 C.3     1  UNL1        0.0000
     14 C           0.8172   11.6006    4.7420 C.2     1  UNL1        0.0000
     15 H           0.6385   11.9113    3.7249 H       1  UNL1        0.0000
     16 C          -0.1754   11.6142    5.7105 C.2     1  UNL1        0.0000
     17 H          -1.1736   11.9402    5.4635 H       1  UNL1        0.0000
     18 C           0.1396   11.2113    7.0007 C.2     1  UNL1        0.0000
     19 H          -0.6025   11.2248    7.7821 H       1  UNL1        0.0000
     20 C           1.4265   10.7866    7.2838 C.2     1  UNL1        0.0000
     21 H           1.7227   10.4769    8.2758 H       1  UNL1        0.0000
     22 C           6.9149    9.4130    5.6867 C.3     1  UNL1        0.0000
     23 H           6.6525    9.6773    4.6723 H       1  UNL1        0.0000
     24 C           8.1752    8.9422    6.0087 C.2     1  UNL1        0.0000
     25 H           8.9214    8.8428    5.2373 H       1  UNL1        0.0000
     26 C           8.4569    8.5966    7.3237 C.2     1  UNL1        0.0000
     27 H           9.4325    8.2262    7.5977 H       1  UNL1        0.0000
     28 C           7.4623    8.7301    8.2792 C.2     1  UNL1        0.0000
     29 H           7.6171    8.4710    9.3145 H       1  UNL1        0.0000
     30 C           6.2334    9.2166    7.8738 C.2     1  UNL1        0.0000
     31 C           4.9901    9.4319    8.7514 C.3     1  UNL1        0.0000
     32 C           4.1262    8.2412    8.3504 C.3     1  UNL1        0.0000
     33 C           3.8710    7.1243    9.1224 C.2     1  UNL1        0.0000
     34 H           4.3107    7.0539   10.1033 H       1  UNL1        0.0000
     35 C           3.0376    6.1486    8.5995 C.2     1  UNL1        0.0000
     36 H           2.8081    5.2612    9.1687 H       1  UNL1        0.0000
     37 C           2.5045    6.3348    7.3319 C.2     1  UNL1        0.0000
     38 H           1.8582    5.5972    6.8849 H       1  UNL1        0.0000
     39 C           2.8104    7.4866    6.6285 C.2     1  UNL1        0.0000
     40 H           2.4195    7.6440    5.6333 H       1  UNL1        0.0000
     41 C           5.7273   10.6276   10.6564 C.3     1  UNL1        0.0000
     42 H           6.7033   10.8871   10.2341 H       1  UNL1        0.0000
     43 H           5.8167   10.4592   11.7262 H       1  UNL1        0.0000
     44 H           5.0186   11.4337   10.4584 H       1  UNL1        0.0000
     45 N           3.9944    9.8734    4.5957 N.pl3   1  UNL1        0.0000
     46 N           3.5191    7.8426    3.3071 N.1     1  UNL1        0.0000
     47 N           4.7048   11.8926    5.9070 N.pl3   1  UNL1        0.0000
     48 N           2.3704   10.7554    6.3480 N.pl3   1  UNL1        0.0000
     49 N           5.9645    9.5478    6.6092 N.pl3   1  UNL1        0.0000
     50 N           3.6120    8.4244    7.1305 N.pl3   1  UNL1        0.0000
     51 O           3.0210   11.2232    2.8473 O.3     1  UNL1        0.0000
     52 H           2.9072   10.3511    2.4417 H       1  UNL1        0.0000
     53 O           4.3695   10.5568    8.3022 O.3     1  UNL1        0.0000
     54 O           5.2493    9.4025   10.1203 O.3     1  UNL1        0.0000
@<TRIPOS>BOND
     1    52    51    1
     2    51    12    1
     3    10     9    1
     4    46     2    3
     5    15    14    1
     6     2    45    1
     7     9     7    1
     8     9    11    2
     9    12    45    1
    10    12    11    1
    11    12    13    1
    12     8     7    1
    13    45     1    1
    14    23    22    1
    15     7     5    2
    16    11    47    1
    17    14    13    1
    18    14    16    2
    19    13    48    1
    20    25    24    1
    21    17    16    1
    22    40    39    1
    23    22    24    1
    24    22    49    1
    25    16    18    1
    26    47     1    1
    27    47     3    1
    28     5     6    1
    29     5     3    1
    30    24    26    2
    31    48     1    1
    32    48    20    1
    33     1    49    1
    34     1    50    1
    35     1    53    1
    36     3     4    1
    37    49    30    1
    38    39    50    1
    39    39    37    2
    40    38    37    1
    41    18    20    2
    42    18    19    1
    43    50    32    1
    44    20    21    1
    45    26    27    1
    46    26    28    1
    47    37    35    1
    48    30    28    2
    49    30    31    1
    50    28    29    1
    51    53    31    1
    52    32    31    1
    53    32    33    1
    54    35    33    2
    55    35    36    1
    56    31    54    1
    57    33    34    1
    58    54    41    1
    59    42    41    1
    60    44    41    1
    61    41    43    1
