@<TRIPOS>MOLECULE
CSD_code = ETUVEV | q = 0 | S = 0 | Stoichiometry = C23H26CoN3O4S | MND = 6
 58 63 0 0 0
SMALL
GASTEIGER

@<TRIPOS>ATOM
      1 CO         -0.6534   11.8234    7.0806 Co.oh   1  UNL1        0.0000
      2 N          -0.0641   13.3712    7.9221 N.3     1  UNL1        0.0000
      3 N           0.8884   12.1015    5.6499 N.4     1  UNL1        0.0000
      4 N          -1.7834   12.8593    6.0472 N.2     1  UNL1        0.0000
      5 O          -1.2001   10.2468    6.2313 O.3     1  UNL1        0.0000
      6 O           0.5209   10.8458    8.1940 O.3     1  UNL1        0.0000
      7 O          -2.0015   11.5193    8.2987 O.3     1  UNL1        0.0000
      8 O           2.5018   11.1430    3.4204 O.3     1  UNL1        0.0000
      9 S          -3.9102   14.6036    5.9417 S.2     1  UNL1        0.0000
     10 C          -0.4288    8.6649    7.8279 C.ar    1  UNL1        0.0000
     11 C          -0.4772    7.3349    8.2939 C.ar    1  UNL1        0.0000
     12 H          -1.1149    6.6251    7.7910 H       1  UNL1        0.0000
     13 C           0.2560    6.9217    9.3723 C.ar    1  UNL1        0.0000
     14 H           0.1992    5.8997    9.7141 H       1  UNL1        0.0000
     15 C           1.0835    7.8353   10.0361 C.ar    1  UNL1        0.0000
     16 H           1.6636    7.5092   10.8876 H       1  UNL1        0.0000
     17 C           1.1538    9.1346    9.6224 C.ar    1  UNL1        0.0000
     18 H           1.7783    9.8513   10.1350 H       1  UNL1        0.0000
     19 C           0.3926    9.6129    8.5215 C.ar    1  UNL1        0.0000
     20 C          -1.1565    9.0774    6.6647 C.3     1  UNL1        0.0000
     21 C          -1.8924    8.0456    5.8419 C.3     1  UNL1        0.0000
     22 H          -2.3146    8.5345    4.9674 H       1  UNL1        0.0000
     23 H          -2.7025    7.6181    6.4283 H       1  UNL1        0.0000
     24 H          -1.2252    7.2459    5.5286 H       1  UNL1        0.0000
     25 C          -2.5854   12.4549    8.9665 C.ar    1  UNL1        0.0000
     26 C          -3.8994   12.2060    9.4304 C.ar    1  UNL1        0.0000
     27 H          -4.3376   11.2550    9.1699 H       1  UNL1        0.0000
     28 C          -4.5939   13.1390   10.1505 C.ar    1  UNL1        0.0000
     29 H          -5.6034   12.9287   10.4719 H       1  UNL1        0.0000
     30 C          -4.0134   14.3731   10.4472 C.ar    1  UNL1        0.0000
     31 H          -4.5777   15.1231   10.9796 H       1  UNL1        0.0000
     32 C          -2.7278   14.6318   10.0469 C.ar    1  UNL1        0.0000
     33 H          -2.3083   15.6039   10.2559 H       1  UNL1        0.0000
     34 C          -1.9737   13.6935    9.3195 C.ar    1  UNL1        0.0000
     35 C          -0.6234   13.9890    8.9135 C.3     1  UNL1        0.0000
     36 C           0.1331   15.0384    9.6865 C.3     1  UNL1        0.0000
     37 H           1.1700   14.7362    9.8169 H       1  UNL1        0.0000
     38 H          -0.3035   15.1736   10.6702 H       1  UNL1        0.0000
     39 H           0.1098   15.9926    9.1597 H       1  UNL1        0.0000
     40 C           1.2485   13.7467    7.4418 C.3     1  UNL1        0.0000
     41 H           2.0078   13.1488    7.9595 H       1  UNL1        0.0000
     42 H           1.4550   14.8079    7.6116 H       1  UNL1        0.0000
     43 C           1.2944   13.4837    5.9370 C.3     1  UNL1        0.0000
     44 H           2.2953   13.7155    5.5574 H       1  UNL1        0.0000
     45 H           0.5713   14.1472    5.4570 H       1  UNL1        0.0000
     46 C           0.3775   11.9507    4.2767 C.3     1  UNL1        0.0000
     47 H          -0.4144   12.6797    4.1067 H       1  UNL1        0.0000
     48 H          -0.0588   10.9529    4.1971 H       1  UNL1        0.0000
     49 C           1.4772   12.0929    3.2222 C.3     1  UNL1        0.0000
     50 H           1.0689   11.8935    2.2303 H       1  UNL1        0.0000
     51 H           1.8994   13.1095    3.2317 H       1  UNL1        0.0000
     52 C           3.0626   11.2796    4.7037 C.3     1  UNL1        0.0000
     53 H           3.5964   12.2402    4.7780 H       1  UNL1        0.0000
     54 H           3.7924   10.4740    4.8048 H       1  UNL1        0.0000
     55 C           2.0025   11.1514    5.8052 C.3     1  UNL1        0.0000
     56 H           1.5849   10.1427    5.7597 H       1  UNL1        0.0000
     57 H           2.4666   11.2834    6.7823 H       1  UNL1        0.0000
     58 C          -2.7187   13.5799    6.0676 C.1     1  UNL1        0.0000
@<TRIPOS>BOND
     1    50    49    1
     2    49    51    1
     3    49     8    1
     4    49    46    1
     5     8    52    1
     6    47    46    1
     7    48    46    1
     8    46     3    1
     9    52    53    1
    10    52    54    1
    11    52    55    1
    12    22    21    1
    13    45    43    1
    14    24    21    1
    15    44    43    1
    16     3    55    1
    17     3    43    1
    18     3     1    1
    19    56    55    1
    20    55    57    1
    21    21    23    1
    22    21    20    1
    23    43    40    1
    24     9    58    2
    25     4    58    2
    26     4     1    1
    27     5    20    1
    28     5     1    1
    29    20    10    1
    30     1     2    1
    31     1     6    1
    32     1     7    1
    33    40    42    1
    34    40     2    1
    35    40    41    1
    36    12    11    1
    37    10    11   ar
    38    10    19   ar
    39     2    35    1
    40     6    19    1
    41    11    13   ar
    42     7    25    1
    43    19    17   ar
    44    35    34    1
    45    35    36    1
    46    25    34   ar
    47    25    26   ar
    48    39    36    1
    49    27    26    1
    50    34    32   ar
    51    13    14    1
    52    13    15   ar
    53    26    28   ar
    54    17    15   ar
    55    17    18    1
    56    36    37    1
    57    36    38    1
    58    15    16    1
    59    32    33    1
    60    32    30   ar
    61    28    30   ar
    62    28    29    1
    63    30    31    1
