@<TRIPOS>MOLECULE
CSD_code = EYEMIG | q = -1 | S = 0 | Stoichiometry = C8H10CoN2O8(1-) | MND = 6
 29 32 0 0 0
SMALL
GASTEIGER

@<TRIPOS>ATOM
      1 CO         11.1120    5.0930    4.8736 Co.oh   1  UNL1        0.0000
      2 O          12.3618    4.2271    3.7715 O.3     1  UNL1        0.0000
      3 O          12.6040    3.2513    1.7937 O.2     1  UNL1        0.0000
      4 O           9.2563    1.7113    5.3337 O.2     1  UNL1        0.0000
      5 O          10.6538    3.4168    5.5914 O.3     1  UNL1        0.0000
      6 N           9.8075    4.7360    3.4980 N.4     1  UNL1        0.0000
      7 H           9.2712    5.5865    3.3283 H       1  UNL1        0.0000
      8 C          11.9632    3.8749    2.6168 C.2     1  UNL1        0.0000
      9 C          10.5241    4.3648    2.2694 C.3     1  UNL1        0.0000
     10 H          10.6518    5.2467    1.6372 H       1  UNL1        0.0000
     11 H           9.9955    3.5910    1.7045 H       1  UNL1        0.0000
     12 C           8.9073    3.6942    4.0102 C.3     1  UNL1        0.0000
     13 H           8.5067    3.0631    3.2103 H       1  UNL1        0.0000
     14 H           8.0807    4.1638    4.5491 H       1  UNL1        0.0000
     15 C           9.6601    2.8250    5.0624 C.2     1  UNL1        0.0000
     16 O           9.8622    5.9591    5.9756 O.3     1  UNL1        0.0000
     17 O           9.6219    6.9416    7.9502 O.2     1  UNL1        0.0000
     18 O          12.9731    8.4710    4.4087 O.2     1  UNL1        0.0000
     19 O          11.5705    6.7690    4.1554 O.3     1  UNL1        0.0000
     20 N          12.4169    5.4504    6.2487 N.4     1  UNL1        0.0000
     21 H          12.9511    4.5991    6.4207 H       1  UNL1        0.0000
     22 C          10.2620    6.3153    7.1287 C.2     1  UNL1        0.0000
     23 C          11.7017    5.8272    7.4765 C.3     1  UNL1        0.0000
     24 H          11.5750    4.9485    8.1133 H       1  UNL1        0.0000
     25 H          12.2310    6.6040    8.0368 H       1  UNL1        0.0000
     26 C          13.3196    6.4883    5.7331 C.3     1  UNL1        0.0000
     27 H          13.7247    7.1188    6.5312 H       1  UNL1        0.0000
     28 H          14.1429    6.0149    5.1925 H       1  UNL1        0.0000
     29 C          12.5669    7.3587    4.6818 C.2     1  UNL1        0.0000
@<TRIPOS>BOND
     1    10     9    1
     2    11     9    1
     3     3     8    2
     4     9     8    1
     5     9     6    1
     6     8     2    1
     7    13    12    1
     8     7     6    1
     9     6    12    1
    10     6     1    1
    11     2     1    1
    12    12    14    1
    13    12    15    1
    14    19    29    1
    15    19     1    1
    16    18    29    2
    17    29    26    1
    18     1     5    1
    19     1    16    1
    20     1    20    1
    21    15     4    2
    22    15     5    1
    23    28    26    1
    24    26    20    1
    25    26    27    1
    26    16    22    1
    27    20    21    1
    28    20    23    1
    29    22    23    1
    30    22    17    2
    31    23    25    1
    32    23    24    1
