@<TRIPOS>MOLECULE
CSD_code = EZEFEW | q = 0 | S = 0 | Stoichiometry = C27H30CoN5O3 | MND = 6
 66 71 0 0 0
SMALL
GASTEIGER

@<TRIPOS>ATOM
      1 CO          2.2123    6.3390    8.3246 Co.oh   1  UNL1        0.0000
      2 N           3.2064    6.1840   10.2449 N.4     1  UNL1        0.0000
      3 C           4.4696    6.8788    9.9521 C.3     1  UNL1        0.0000
      4 H           5.1272    6.1822    9.4262 H       1  UNL1        0.0000
      5 H           4.9654    7.2161   10.8717 H       1  UNL1        0.0000
      6 C           4.2169    8.0696    9.0289 C.3     1  UNL1        0.0000
      7 H           3.6041    8.8210    9.5378 H       1  UNL1        0.0000
      8 H           5.1684    8.5320    8.7357 H       1  UNL1        0.0000
      9 N           3.4899    7.5810    7.8856 N.3     1  UNL1        0.0000
     10 C           3.8460    7.9252    6.6939 C.3     1  UNL1        0.0000
     11 H           4.7044    8.5897    6.6092 H       1  UNL1        0.0000
     12 C           3.2057    7.5301    5.4937 C.ar    1  UNL1        0.0000
     13 O           1.4337    6.4025    6.6551 O.3     1  UNL1        0.0000
     14 C           1.9931    6.7933    5.5724 C.ar    1  UNL1        0.0000
     15 C           1.3156    6.4617    4.3548 C.ar    1  UNL1        0.0000
     16 H           0.3854    5.9233    4.4525 H       1  UNL1        0.0000
     17 C           1.8211    6.8051    3.1488 C.ar    1  UNL1        0.0000
     18 H           1.2952    6.5413    2.2419 H       1  UNL1        0.0000
     19 C           3.0513    7.5043    3.0330 C.ar    1  UNL1        0.0000
     20 C           3.5705    7.8240    1.7684 C.ar    1  UNL1        0.0000
     21 H           3.0087    7.5324    0.8923 H       1  UNL1        0.0000
     22 C           4.7621    8.4881    1.6406 C.ar    1  UNL1        0.0000
     23 H           5.1567    8.7326    0.6658 H       1  UNL1        0.0000
     24 C           5.4686    8.8445    2.7904 C.ar    1  UNL1        0.0000
     25 H           6.4128    9.3617    2.6971 H       1  UNL1        0.0000
     26 C           4.9798    8.5433    4.0370 C.ar    1  UNL1        0.0000
     27 H           5.5696    8.8312    4.8935 H       1  UNL1        0.0000
     28 C           3.7541    7.8725    4.2085 C.ar    1  UNL1        0.0000
     29 C           3.4646    4.7729   10.5818 C.3     1  UNL1        0.0000
     30 H           3.9753    4.3202    9.7296 H       1  UNL1        0.0000
     31 H           2.5005    4.2757   10.6905 H       1  UNL1        0.0000
     32 C           4.3047    4.5272   11.8358 C.3     1  UNL1        0.0000
     33 H           4.4692    3.4570   11.9359 H       1  UNL1        0.0000
     34 H           3.8030    4.8723   12.7356 H       1  UNL1        0.0000
     35 H           5.2762    5.0104   11.7676 H       1  UNL1        0.0000
     36 C           2.5186    6.8785   11.3527 C.3     1  UNL1        0.0000
     37 H           2.2780    7.8821   11.0024 H       1  UNL1        0.0000
     38 H           3.2036    6.9672   12.2076 H       1  UNL1        0.0000
     39 C           1.2224    6.2165   11.7990 C.3     1  UNL1        0.0000
     40 H           0.6731    6.9086   12.4323 H       1  UNL1        0.0000
     41 H           1.3991    5.3060   12.3663 H       1  UNL1        0.0000
     42 H           0.6095    5.9856   10.9334 H       1  UNL1        0.0000
     43 C           0.8209    3.8902    8.2658 C.2     1  UNL1        0.0000
     44 O           0.9170    5.0357    8.7838 O.2     1  UNL1        0.0000
     45 C           1.7756    3.2800    7.4454 C.2     1  UNL1        0.0000
     46 H           1.5365    2.3264    7.0045 H       1  UNL1        0.0000
     47 O           3.3904    5.0015    7.5761 O.3     1  UNL1        0.0000
     48 C           2.9924    3.8843    7.1272 C.3     1  UNL1        0.0000
     49 C           3.9100    3.1957    6.1828 C.ar    1  UNL1        0.0000
     50 C           4.0834    1.8151    6.1821 C.ar    1  UNL1        0.0000
     51 H           3.5629    1.2062    6.9065 H       1  UNL1        0.0000
     52 C           4.9408    1.2243    5.2720 C.ar    1  UNL1        0.0000
     53 H           5.0763    0.1524    5.2802 H       1  UNL1        0.0000
     54 C           5.6256    2.0010    4.3513 C.ar    1  UNL1        0.0000
     55 H           6.2884    1.5339    3.6377 H       1  UNL1        0.0000
     56 C           5.4619    3.3767    4.3509 C.ar    1  UNL1        0.0000
     57 H           5.9935    3.9872    3.6358 H       1  UNL1        0.0000
     58 C           4.6167    3.9725    5.2675 C.ar    1  UNL1        0.0000
     59 H           4.4803    5.0440    5.2754 H       1  UNL1        0.0000
     60 C          -0.4388    3.1133    8.5730 C.3     1  UNL1        0.0000
     61 H          -0.1996    2.1094    8.9145 H       1  UNL1        0.0000
     62 H          -1.0359    3.0344    7.6672 H       1  UNL1        0.0000
     63 H          -1.0181    3.6363    9.3288 H       1  UNL1        0.0000
     64 N           1.1158    7.6918    8.9440 N.2     1  UNL1        0.0000
     65 N          -0.0332    7.8338    8.7568 N.2     1  UNL1        0.0000
     66 N          -1.1280    8.1158    8.6801 N.2     1  UNL1        0.0000
@<TRIPOS>BOND
     1    23    22    1
     2    21    20    1
     3    22    20   ar
     4    22    24   ar
     5    20    19   ar
     6    18    17    1
     7    25    24    1
     8    24    26   ar
     9    19    17   ar
    10    19    28   ar
    11    17    15   ar
    12    57    56    1
    13    55    54    1
    14    26    28   ar
    15    26    27    1
    16    28    12   ar
    17    56    54   ar
    18    56    58   ar
    19    54    52   ar
    20    15    16    1
    21    15    14   ar
    22    58    59    1
    23    58    49   ar
    24    52    53    1
    25    52    50   ar
    26    12    14   ar
    27    12    10    1
    28    14    13    1
    29    50    49   ar
    30    50    51    1
    31    49    48    1
    32    11    10    1
    33    13     1    1
    34    10     9    1
    35    46    45    1
    36    48    45    1
    37    48    47    1
    38    45    43    2
    39    47     1    1
    40    62    60    1
    41     9     1    1
    42     9     6    1
    43    43    60    1
    44    43    44    1
    45     1    44    1
    46     1    64    1
    47     1     2    1
    48    60    61    1
    49    60    63    1
    50    66    65    2
    51     8     6    1
    52    65    64    2
    53     6     7    1
    54     6     3    1
    55     4     3    1
    56    30    29    1
    57     3     2    1
    58     3     5    1
    59     2    29    1
    60     2    36    1
    61    29    31    1
    62    29    32    1
    63    42    39    1
    64    37    36    1
    65    36    39    1
    66    36    38    1
    67    35    32    1
    68    39    41    1
    69    39    40    1
    70    32    33    1
    71    32    34    1
