@<TRIPOS>MOLECULE
CSD_code = FEMPOD | q = 1 | S = 0 | Stoichiometry = C49H58CoN8O(1+) | MND = 4
 117 125 0 0 0
SMALL
GASTEIGER

@<TRIPOS>ATOM
      1 CO          0.2512    3.8417    5.4078 Co.oh   1  UNL1        0.0000
      2 N          -1.4102    5.4085    3.3334 N.pl3   1  UNL1        0.0000
      3 N           0.8579    3.1627    4.0216 N.pl3   1  UNL1        0.0000
      4 N           0.5021    1.1001    6.6067 N.pl3   1  UNL1        0.0000
      5 N           1.8036    5.5988    7.1962 N.pl3   1  UNL1        0.0000
      6 N          -0.1462    2.4030    8.1782 N.pl3   1  UNL1        0.0000
      7 C          -1.3178    4.5640    4.3920 C.3     1  UNL1        0.0000
      8 C           0.1557    2.3894    6.8516 C.3     1  UNL1        0.0000
      9 O           0.0405    0.2455   -0.5631 O.3     1  UNL1        0.0000
     10 C           0.5966    2.5308    2.8847 C.ar    1  UNL1        0.0000
     11 N          -0.1934    6.3791    7.1991 N.pl3   1  UNL1        0.0000
     12 N          -2.5997    4.2340    4.6803 N.pl3   1  UNL1        0.0000
     13 C           4.7604    3.4661    7.8134 C.ar    1  UNL1        0.0000
     14 H           5.1774    2.8703    8.6123 H       1  UNL1        0.0000
     15 C          -0.3627    5.8997    2.4987 C.ar    1  UNL1        0.0000
     16 C           5.4648    3.6014    6.6268 C.ar    1  UNL1        0.0000
     17 C          -0.1929    5.3277    1.2342 C.ar    1  UNL1        0.0000
     18 C           0.5603    5.3562    6.7092 C.3     1  UNL1        0.0000
     19 C          -0.7247    1.0460    1.4929 C.ar    1  UNL1        0.0000
     20 H          -1.6163    0.4663    1.3091 H       1  UNL1        0.0000
     21 C           3.5376    4.0910    8.0136 C.ar    1  UNL1        0.0000
     22 C          -0.6419    3.4889    8.9818 C.3     1  UNL1        0.0000
     23 H          -0.1829    4.4164    8.6508 H       1  UNL1        0.0000
     24 H          -0.3516    3.2956   10.0173 H       1  UNL1        0.0000
     25 C           2.8366    3.9006    9.3267 C.3     1  UNL1        0.0000
     26 H           2.2820    2.9624    9.3140 H       1  UNL1        0.0000
     27 H           2.1438    4.7086    9.5465 H       1  UNL1        0.0000
     28 H           3.5647    3.8428   10.1325 H       1  UNL1        0.0000
     29 C           3.0023    4.8587    6.9780 C.ar    1  UNL1        0.0000
     30 N          -2.5497    4.4845    7.7937 N.3     1  UNL1        0.0000
     31 C          -3.4723    4.8837    3.8463 C.2     1  UNL1        0.0000
     32 H          -4.5334    4.7607    3.9148 H       1  UNL1        0.0000
     33 C           0.1004    7.7429    4.1469 C.3     1  UNL1        0.0000
     34 H           0.3500    7.1355    5.0102 H       1  UNL1        0.0000
     35 H          -0.9595    7.9901    4.1952 H       1  UNL1        0.0000
     36 H           0.6729    8.6654    4.1898 H       1  UNL1        0.0000
     37 C           0.5646    7.2215    7.9733 C.2     1  UNL1        0.0000
     38 H           0.1552    8.0909    8.4443 H       1  UNL1        0.0000
     39 C           0.8546    5.7724    0.4426 C.ar    1  UNL1        0.0000
     40 H           1.0022    5.3188   -0.5264 H       1  UNL1        0.0000
     41 C           1.5898    2.5118    1.8806 C.ar    1  UNL1        0.0000
     42 H           2.4883    3.0866    2.0472 H       1  UNL1        0.0000
     43 C          -3.0445    3.3103    5.6884 C.3     1  UNL1        0.0000
     44 H          -2.1803    2.7106    5.9859 H       1  UNL1        0.0000
     45 H          -3.8139    2.6670    5.2520 H       1  UNL1        0.0000
     46 C           0.2847    1.0221    0.5227 C.ar    1  UNL1        0.0000
     47 C          -2.7234    5.6180    2.9964 C.2     1  UNL1        0.0000
     48 H          -3.0050    6.2635    2.1907 H       1  UNL1        0.0000
     49 C           3.6976    5.0231    5.7760 C.ar    1  UNL1        0.0000
     50 C          -1.1548    4.3259    0.6732 C.3     1  UNL1        0.0000
     51 H          -1.6207    3.7206    1.4445 H       1  UNL1        0.0000
     52 H          -0.6492    3.6623   -0.0223 H       1  UNL1        0.0000
     53 H          -1.9397    4.8481    0.1240 H       1  UNL1        0.0000
     54 C           1.8233    6.7335    7.9669 C.2     1  UNL1        0.0000
     55 H           2.7207    7.0939    8.4260 H       1  UNL1        0.0000
     56 C          -0.5804    1.7834    2.6380 C.ar    1  UNL1        0.0000
     57 H          -1.3602    1.7911    3.3861 H       1  UNL1        0.0000
     58 C           2.8374    7.2294   -0.0183 C.3     1  UNL1        0.0000
     59 H           3.2944    8.1396    0.3610 H       1  UNL1        0.0000
     60 H           2.4960    7.4059   -1.0367 H       1  UNL1        0.0000
     61 H           3.5980    6.4496   -0.0550 H       1  UNL1        0.0000
     62 C           2.1674    0.5315    4.9127 C.ar    1  UNL1        0.0000
     63 C          -1.5979    6.6077    6.9871 C.3     1  UNL1        0.0000
     64 H          -1.8661    6.2389    5.9990 H       1  UNL1        0.0000
     65 H          -1.7767    7.6850    7.0306 H       1  UNL1        0.0000
     66 C           1.4410    1.7751    0.7297 C.ar    1  UNL1        0.0000
     67 H           2.2322    1.7835   -0.0040 H       1  UNL1        0.0000
     68 C           0.8584    0.4573    5.3857 C.ar    1  UNL1        0.0000
     69 C           1.5743   -0.9810    3.1176 C.ar    1  UNL1        0.0000
     70 C           4.9177    4.3842    5.6205 C.ar    1  UNL1        0.0000
     71 H           5.4573    4.5093    4.6935 H       1  UNL1        0.0000
     72 C           0.0121    1.1582    8.7317 C.2     1  UNL1        0.0000
     73 H          -0.1756    0.9635    9.7676 H       1  UNL1        0.0000
     74 C           3.1829    1.3598    5.6300 C.3     1  UNL1        0.0000
     75 H           2.8859    2.4075    5.5955 H       1  UNL1        0.0000
     76 H           4.1596    1.2588    5.1671 H       1  UNL1        0.0000
     77 H           3.2600    1.0642    6.6761 H       1  UNL1        0.0000
     78 C           0.4079    6.9945    2.8878 C.ar    1  UNL1        0.0000
     79 C          -1.4782   -0.5016    5.3083 C.3     1  UNL1        0.0000
     80 H          -1.5091   -1.2891    6.0624 H       1  UNL1        0.0000
     81 H          -2.1669   -0.7754    4.5135 H       1  UNL1        0.0000
     82 H          -1.8239    0.4204    5.7708 H       1  UNL1        0.0000
     83 C          -3.6093    4.0212    6.9332 C.3     1  UNL1        0.0000
     84 H          -4.2217    4.8678    6.6098 H       1  UNL1        0.0000
     85 H          -4.2679    3.3192    7.4598 H       1  UNL1        0.0000
     86 C           1.6997    6.7942    0.8507 C.ar    1  UNL1        0.0000
     87 C           0.2898   -1.0668    3.6339 C.ar    1  UNL1        0.0000
     88 H          -0.4358   -1.7000    3.1453 H       1  UNL1        0.0000
     89 C           1.4390    7.4160    2.0617 C.ar    1  UNL1        0.0000
     90 H           2.0423    8.2579    2.3677 H       1  UNL1        0.0000
     91 C           3.1383    5.8689    4.6773 C.3     1  UNL1        0.0000
     92 H           3.8574    5.9751    3.8705 H       1  UNL1        0.0000
     93 H           2.8757    6.8606    5.0422 H       1  UNL1        0.0000
     94 H           2.2369    5.3983    4.2760 H       1  UNL1        0.0000
     95 C          -0.0872   -0.3584    4.7640 C.ar    1  UNL1        0.0000
     96 C          -2.4757    5.9034    8.0376 C.3     1  UNL1        0.0000
     97 H          -2.0520    6.0829    9.0290 H       1  UNL1        0.0000
     98 H          -3.4715    6.3683    8.0133 H       1  UNL1        0.0000
     99 C           0.4253    0.3400    7.7426 C.2     1  UNL1        0.0000
    100 H           0.6740   -0.7009    7.7462 H       1  UNL1        0.0000
    101 C           2.4990   -0.1794    3.7703 C.ar    1  UNL1        0.0000
    102 H           3.5080   -0.1145    3.3905 H       1  UNL1        0.0000
    103 C           1.0112    0.1726   -1.5814 C.3     1  UNL1        0.0000
    104 H           1.1918    1.1520   -2.0350 H       1  UNL1        0.0000
    105 H           0.6005   -0.5000   -2.3323 H       1  UNL1        0.0000
    106 H           1.9551   -0.2354   -1.2072 H       1  UNL1        0.0000
    107 C           6.7966    2.9422    6.4538 C.3     1  UNL1        0.0000
    108 H           7.5739    3.5482    6.9196 H       1  UNL1        0.0000
    109 H           7.0426    2.8300    5.4012 H       1  UNL1        0.0000
    110 H           6.8092    1.9639    6.9287 H       1  UNL1        0.0000
    111 C           1.9519   -1.7657    1.9008 C.3     1  UNL1        0.0000
    112 H           2.8623   -1.3742    1.4536 H       1  UNL1        0.0000
    113 H           1.1505   -1.7409    1.1657 H       1  UNL1        0.0000
    114 H           2.1255   -2.8084    2.1685 H       1  UNL1        0.0000
    115 C          -2.1739    3.6338    8.8945 C.3     1  UNL1        0.0000
    116 H          -2.6130    2.6442    8.7540 H       1  UNL1        0.0000
    117 H          -2.5416    4.0294    9.8536 H       1  UNL1        0.0000
@<TRIPOS>BOND
     1   105   103    1
     2   104   103    1
     3   103   106    1
     4   103     9    1
     5    60    58    1
     6     9    46    1
     7    40    39    1
     8    61    58    1
     9    52    50    1
    10    58    59    1
    11    58    86    1
    12    67    66    1
    13    53    50    1
    14    39    86   ar
    15    39    17   ar
    16    46    66   ar
    17    46    19   ar
    18    50    17    1
    19    50    51    1
    20    66    41   ar
    21    86    89   ar
    22   113   111    1
    23    17    15   ar
    24    20    19    1
    25   112   111    1
    26    19    56   ar
    27    41    42    1
    28    41    10   ar
    29   111   114    1
    30   111    69    1
    31    89    90    1
    32    89    78   ar
    33    48    47    1
    34    15    78   ar
    35    15     2    1
    36    56    10   ar
    37    56    57    1
    38    10     3    1
    39    78    33    1
    40    47     2    1
    41    47    31    2
    42    69    87   ar
    43    69   101   ar
    44    88    87    1
    45     2     7    1
    46   102   101    1
    47    87    95   ar
    48   101    62   ar
    49    31    32    1
    50    31    12    1
    51    92    91    1
    52     3     1    1
    53    33    36    1
    54    33    35    1
    55    33    34    1
    56    94    91    1
    57     7    12    1
    58     7     1    1
    59    81    79    1
    60    91    93    1
    61    91    49    1
    62    12    43    1
    63    71    70    1
    64    95    79    1
    65    95    68   ar
    66    62    68   ar
    67    62    74    1
    68    76    74    1
    69    45    43    1
    70    79    82    1
    71    79    80    1
    72    68     4    1
    73   109   107    1
    74     1    18    1
    75     1     8    1
    76    75    74    1
    77    70    49   ar
    78    70    16   ar
    79    74    77    1
    80    43    44    1
    81    43    83    1
    82    49    29   ar
    83    64    63    1
    84   107    16    1
    85   107   108    1
    86   107   110    1
    87     4     8    1
    88     4    99    1
    89    84    83    1
    90    16    13   ar
    91    18     5    1
    92    18    11    1
    93     8     6    1
    94    83    85    1
    95    83    30    1
    96    29     5    1
    97    29    21   ar
    98    63    65    1
    99    63    11    1
   100    63    96    1
   101     5    54    1
   102    11    37    1
   103    99   100    1
   104    99    72    2
   105    30    96    1
   106    30   115    1
   107    13    21   ar
   108    13    14    1
   109    54    37    2
   110    54    55    1
   111    37    38    1
   112    98    96    1
   113    21    25    1
   114    96    97    1
   115     6    72    1
   116     6    22    1
   117    23    22    1
   118    72    73    1
   119   116   115    1
   120   115    22    1
   121   115   117    1
   122    22    24    1
   123    26    25    1
   124    25    27    1
   125    25    28    1
