@<TRIPOS>MOLECULE
CSD_code = FEXGAQ | q = 0 | S = 0 | Stoichiometry = C21H21CoO6 | MND = 8
 49 52 0 0 0
SMALL
GASTEIGER

@<TRIPOS>ATOM
      1 CO          2.8578    1.1272    0.2758 Co.oh   1  UNL1        0.0000
      2 O           5.4723    4.9103   -0.7999 O.3     1  UNL1        0.0000
      3 O           4.8699    4.4709   -2.9185 O.2     1  UNL1        0.0000
      4 O           1.5431    2.1291   -0.7931 O.3     1  UNL1        0.0000
      5 O           1.3272    2.9822   -2.8514 O.3     1  UNL1        0.0000
      6 O           2.9761   -1.5327   -2.0848 O.3     1  UNL1        0.0000
      7 O           1.6027    0.1301   -2.7129 O.2     1  UNL1        0.0000
      8 C           4.0217    2.6481    0.0885 C.2     1  UNL1        0.0000
      9 C           4.1663    3.0047   -1.1976 C.2     1  UNL1        0.0000
     10 C           3.4492    2.0760   -2.1530 C.3     1  UNL1        0.0000
     11 C           3.5907    0.6811   -1.5347 C.3     1  UNL1        0.0000
     12 C           4.6017    3.3519    1.2231 C.ar    1  UNL1        0.0000
     13 C           5.8907    3.0518    1.6634 C.ar    1  UNL1        0.0000
     14 C           6.4349    3.7253    2.7394 C.ar    1  UNL1        0.0000
     15 C           5.7035    4.7022    3.3955 C.ar    1  UNL1        0.0000
     16 C           4.4197    5.0019    2.9689 C.ar    1  UNL1        0.0000
     17 C           3.8678    4.3293    1.8961 C.ar    1  UNL1        0.0000
     18 C           4.8530    4.1805   -1.7442 C.2     1  UNL1        0.0000
     19 C           6.1628    6.0594   -1.2625 C.3     1  UNL1        0.0000
     20 C           1.9973    2.3710   -1.9181 C.3     1  UNL1        0.0000
     21 C          -0.0560    3.2156   -2.5964 C.3     1  UNL1        0.0000
     22 C           2.6267   -0.2365   -2.1627 C.2     1  UNL1        0.0000
     23 C           2.0532   -2.4569   -2.6386 C.3     1  UNL1        0.0000
     24 C           3.7604    0.0422    1.7553 C.3     1  UNL1        0.0000
     25 C           2.9016    0.9792    2.3926 C.2     1  UNL1        0.0000
     26 C           1.5911    0.7184    1.9609 C.2     1  UNL1        0.0000
     27 C           1.6142   -0.4243    1.1137 C.2     1  UNL1        0.0000
     28 C           2.9422   -0.8569    1.0079 C.2     1  UNL1        0.0000
     29 H           3.7517    2.1835   -3.1953 H       1  UNL1        0.0000
     30 H           4.6097    0.2938   -1.5604 H       1  UNL1        0.0000
     31 H           6.4589    2.2929    1.1467 H       1  UNL1        0.0000
     32 H           7.4367    3.4899    3.0690 H       1  UNL1        0.0000
     33 H           6.1320    5.2279    4.2362 H       1  UNL1        0.0000
     34 H           3.8459    5.7632    3.4778 H       1  UNL1        0.0000
     35 H           2.8658    4.5561    1.5619 H       1  UNL1        0.0000
     36 H           5.4733    6.7447   -1.7605 H       1  UNL1        0.0000
     37 H           6.5950    6.5241   -0.3800 H       1  UNL1        0.0000
     38 H           6.9446    5.7754   -1.9704 H       1  UNL1        0.0000
     39 H          -0.5714    2.2585   -2.5013 H       1  UNL1        0.0000
     40 H          -0.1826    3.7894   -1.6764 H       1  UNL1        0.0000
     41 H          -0.4304    3.7700   -3.4529 H       1  UNL1        0.0000
     42 H           1.8253   -2.1932   -3.6736 H       1  UNL1        0.0000
     43 H           2.5302   -3.4328   -2.5880 H       1  UNL1        0.0000
     44 H           1.1233   -2.4560   -2.0648 H       1  UNL1        0.0000
     45 H           4.8062   -0.1011    1.9769 H       1  UNL1        0.0000
     46 H           3.1977    1.7092    3.1280 H       1  UNL1        0.0000
     47 H           0.7019    1.2265    2.2992 H       1  UNL1        0.0000
     48 H           0.7464   -0.9242    0.7154 H       1  UNL1        0.0000
     49 H           3.2875   -1.7461    0.5060 H       1  UNL1        0.0000
@<TRIPOS>BOND
     1    42    23    1
     2    41    21    1
     3    29    10    1
     4     3    18    2
     5     5    21    1
     6     5    20    1
     7     7    22    2
     8    23    43    1
     9    23     6    1
    10    23    44    1
    11    21    39    1
    12    21    40    1
    13    22     6    1
    14    22    11    1
    15    10    20    1
    16    10    11    1
    17    10     9    1
    18    38    19    1
    19    20     4    1
    20    36    19    1
    21    18     9    1
    22    18     2    1
    23    30    11    1
    24    11     1    1
    25    19     2    1
    26    19    37    1
    27     9     8    2
    28     4     1    1
    29     8     1    1
    30     8    12    1
    31     1    24    1
    32    49    28    1
    33    48    27    1
    34    28    27    2
    35    28    24    1
    36    27    26    1
    37    31    13    1
    38    12    13   ar
    39    12    17   ar
    40    35    17    1
    41    13    14   ar
    42    24    45    1
    43    24    25    1
    44    17    16   ar
    45    26    47    1
    46    26    25    2
    47    25    46    1
    48    14    32    1
    49    14    15   ar
    50    16    15   ar
    51    16    34    1
    52    15    33    1
