@<TRIPOS>MOLECULE
CSD_code = FEYRUX | q = 1 | S = 0 | Stoichiometry = C26H20Br2CoN4O2(1+) | MND = 6
 55 62 0 0 0
SMALL
GASTEIGER

@<TRIPOS>ATOM
      1 CO         14.3668    0.5548    4.1764 Co.oh   1  UNL1        0.0000
      2 BR         15.1282   -2.9666   -2.2355 Br      1  UNL1        0.0000
      3 BR         15.4700   -3.7970   10.0015 Br      1  UNL1        0.0000
      4 N          12.9717    0.2976    2.9496 N.3     1  UNL1        0.0000
      5 N          13.0662    1.5426    5.2105 N.pl3   1  UNL1        0.0000
      6 N          15.7697    0.7782    5.4008 N.3     1  UNL1        0.0000
      7 N          15.0535    2.1546    3.3360 N.pl3   1  UNL1        0.0000
      8 O          15.6096   -0.4100    3.1744 O.3     1  UNL1        0.0000
      9 O          13.7210   -0.9947    4.9894 O.3     1  UNL1        0.0000
     10 C          15.4390   -0.9418    2.0160 C.ar    1  UNL1        0.0000
     11 C          16.5524   -1.5708    1.3999 C.ar    1  UNL1        0.0000
     12 H          17.4845   -1.5752    1.9425 H       1  UNL1        0.0000
     13 C          16.4577   -2.1577    0.1696 C.ar    1  UNL1        0.0000
     14 H          17.3191   -2.6294   -0.2779 H       1  UNL1        0.0000
     15 C          15.2366   -2.1526   -0.5187 C.ar    1  UNL1        0.0000
     16 C          14.1302   -1.5701    0.0361 C.ar    1  UNL1        0.0000
     17 H          13.1896   -1.5760   -0.4939 H       1  UNL1        0.0000
     18 C          14.2034   -0.9506    1.3010 C.ar    1  UNL1        0.0000
     19 C          13.0301   -0.3853    1.8540 C.3     1  UNL1        0.0000
     20 H          12.1084   -0.5474    1.2934 H       1  UNL1        0.0000
     21 C          11.6722    0.7189    3.4291 C.3     1  UNL1        0.0000
     22 H          11.0396   -0.1601    3.6137 H       1  UNL1        0.0000
     23 H          11.1588    1.3430    2.6847 H       1  UNL1        0.0000
     24 C          11.8269    1.4714    4.7131 C.3     1  UNL1        0.0000
     25 C          10.7376    2.0454    5.3571 C.2     1  UNL1        0.0000
     26 H           9.7553    1.9616    4.9197 H       1  UNL1        0.0000
     27 C          10.9305    2.7076    6.5552 C.2     1  UNL1        0.0000
     28 H          10.1007    3.1554    7.0785 H       1  UNL1        0.0000
     29 C          12.2186    2.7778    7.0681 C.2     1  UNL1        0.0000
     30 H          12.4212    3.2807    7.9994 H       1  UNL1        0.0000
     31 C          13.2493    2.1854    6.3663 C.2     1  UNL1        0.0000
     32 H          14.2587    2.2233    6.7473 H       1  UNL1        0.0000
     33 C          14.1492   -1.5510    6.0668 C.ar    1  UNL1        0.0000
     34 C          13.4553   -2.6909    6.5506 C.ar    1  UNL1        0.0000
     35 H          12.6063   -3.0352    5.9814 H       1  UNL1        0.0000
     36 C          13.8422   -3.3396    7.6892 C.ar    1  UNL1        0.0000
     37 H          13.2974   -4.2040    8.0369 H       1  UNL1        0.0000
     38 C          14.9539   -2.8858    8.4125 C.ar    1  UNL1        0.0000
     39 C          15.6646   -1.7991    7.9824 C.ar    1  UNL1        0.0000
     40 H          16.5255   -1.4584    8.5379 H       1  UNL1        0.0000
     41 C          15.2811   -1.1070    6.8150 C.ar    1  UNL1        0.0000
     42 C          16.0591   -0.0055    6.3868 C.3     1  UNL1        0.0000
     43 H          16.9738    0.1845    6.9500 H       1  UNL1        0.0000
     44 C          16.7264    1.7999    5.0304 C.3     1  UNL1        0.0000
     45 H          17.6802    1.3337    4.7480 H       1  UNL1        0.0000
     46 H          16.9278    2.4770    5.8719 H       1  UNL1        0.0000
     47 C          16.2101    2.5748    3.8591 C.3     1  UNL1        0.0000
     48 C          16.9071    3.6580    3.3378 C.2     1  UNL1        0.0000
     49 H          17.8377    3.9608    3.7912 H       1  UNL1        0.0000
     50 C          16.3994    4.3248    2.2384 C.2     1  UNL1        0.0000
     51 H          16.9247    5.1635    1.8101 H       1  UNL1        0.0000
     52 C          15.1988    3.8842    1.6983 C.2     1  UNL1        0.0000
     53 H          14.7622    4.3687    0.8405 H       1  UNL1        0.0000
     54 C          14.5644    2.8027    2.2762 C.2     1  UNL1        0.0000
     55 H          13.6318    2.4394    1.8714 H       1  UNL1        0.0000
@<TRIPOS>BOND
     1     2    15    1
     2    15    16   ar
     3    15    13   ar
     4    17    16    1
     5    14    13    1
     6    16    18   ar
     7    13    11   ar
     8    53    52    1
     9    20    19    1
    10    18    19    1
    11    18    10   ar
    12    11    12    1
    13    11    10   ar
    14    52    50    1
    15    52    54    2
    16    51    50    1
    17    19     4    1
    18    55    54    1
    19    10     8    1
    20    50    48    2
    21    54     7    1
    22    23    21    1
    23     4    21    1
    24     4     1    1
    25     8     1    1
    26     7    47    1
    27     7     1    1
    28    48    49    1
    29    48    47    1
    30    21    22    1
    31    21    24    1
    32    47    44    1
    33     1     9    1
    34     1     5    1
    35     1     6    1
    36    24     5    1
    37    24    25    1
    38    45    44    1
    39    26    25    1
    40     9    33    1
    41    44     6    1
    42    44    46    1
    43     5    31    1
    44    25    27    2
    45     6    42    1
    46    35    34    1
    47    33    34   ar
    48    33    41   ar
    49    31    32    1
    50    31    29    2
    51    42    41    1
    52    42    43    1
    53    34    36   ar
    54    27    29    1
    55    27    28    1
    56    41    39   ar
    57    29    30    1
    58    36    37    1
    59    36    38   ar
    60    39    38   ar
    61    39    40    1
    62    38     3    1
