@<TRIPOS>MOLECULE
CSD_code = FMFPCO | q = 0 | S = 0 | Stoichiometry = C12H14CoF8O5P | MND = 6
 41 40 0 0 0
SMALL
GASTEIGER

@<TRIPOS>ATOM
      1 CO         -1.0998   -1.0288    3.6474 Co.oh   1  UNL1        0.0000
      2 C           0.3994   -0.9638    4.9240 C.3     1  UNL1        0.0000
      3 C           1.0814    0.3998    5.0703 C.3     1  UNL1        0.0000
      4 F           0.4291    1.2313    5.8888 F       1  UNL1        0.0000
      5 F           2.3443    0.3285    5.4959 F       1  UNL1        0.0000
      6 F           1.1309    1.0368    3.8762 F       1  UNL1        0.0000
      7 F           1.4196   -1.8248    4.5045 F       1  UNL1        0.0000
      8 C          -0.0982   -1.5565    6.2614 C.3     1  UNL1        0.0000
      9 C           0.9813   -1.7730    7.3462 C.3     1  UNL1        0.0000
     10 F           0.4389   -2.3884    8.4124 F       1  UNL1        0.0000
     11 F           1.5105   -0.6381    7.7948 F       1  UNL1        0.0000
     12 F           1.9797   -2.5558    6.9353 F       1  UNL1        0.0000
     13 F          -1.0119   -0.6986    6.8438 F       1  UNL1        0.0000
     14 C          -0.8048   -2.8843    5.9524 C.3     1  UNL1        0.0000
     15 H          -0.0335   -3.6412    5.7928 H       1  UNL1        0.0000
     16 H          -1.4055   -3.1620    6.8197 H       1  UNL1        0.0000
     17 C          -1.6686   -2.7595    4.7118 C.3     1  UNL1        0.0000
     18 H          -2.7405   -2.7394    4.8853 H       1  UNL1        0.0000
     19 C          -1.1772   -3.1419    3.4888 C.3     1  UNL1        0.0000
     20 H          -0.1906   -3.5837    3.4230 H       1  UNL1        0.0000
     21 H          -1.8523   -3.4013    2.6832 H       1  UNL1        0.0000
     22 P          -2.7081   -0.7325    2.1641 P.3     2  UNL2        0.0000
     23 O          -4.2331   -1.1375    2.4341 O.3     2  UNL2        0.0000
     24 C          -5.0270   -0.5546    3.4574 C.3     2  UNL2        0.0000
     25 H          -4.7081   -0.8979    4.4427 H       2  UNL2        0.0000
     26 H          -4.9778    0.5335    3.4173 H       2  UNL2        0.0000
     27 H          -6.0490   -0.8833    3.2710 H       2  UNL2        0.0000
     28 O          -2.4631   -1.5605    0.8220 O.3     2  UNL2        0.0000
     29 C          -3.3724   -1.4898   -0.2775 C.3     2  UNL2        0.0000
     30 H          -4.1952   -2.1882   -0.1270 H       2  UNL2        0.0000
     31 H          -3.7705   -0.4805   -0.3891 H       2  UNL2        0.0000
     32 H          -2.8041   -1.7685   -1.1639 H       2  UNL2        0.0000
     33 O          -2.9693    0.7910    1.6924 O.3     2  UNL2        0.0000
     34 C          -1.9192    1.7404    1.5690 C.3     2  UNL2        0.0000
     35 H          -1.1373    1.5621    2.3141 H       2  UNL2        0.0000
     36 H          -1.4799    1.6897    0.5716 H       2  UNL2        0.0000
     37 H          -2.3622    2.7232    1.7274 H       2  UNL2        0.0000
     38 C          -2.0014    0.1260    4.6278 C.3     1  UNL1        0.0000
     39 O          -2.6589    0.9453    5.0766 O.3     1  UNL1        0.0000
     40 C           0.0312   -1.1757    2.2773 C.3     1  UNL1        0.0000
     41 O           0.6837   -1.3275    1.3584 O.3     1  UNL1        0.0000
@<TRIPOS>BOND
     1    32    29    1
     2    31    29    1
     3    29    30    1
     4    29    28    1
     5    36    34    1
     6    28    22    1
     7    41    40    1
     8    34    33    1
     9    34    37    1
    10    34    35    1
    11    33    22    1
    12    22    23    1
    13    40     1    1
    14    23    24    1
    15    21    19    1
    16    27    24    1
    17    26    24    1
    18    20    19    1
    19    24    25    1
    20    19    17    1
    21     1    38    1
    22     1    17    1
    23     1     2    1
    24     6     3    1
    25     7     2    1
    26    38    39    1
    27    17    18    1
    28    17    14    1
    29     2     3    1
    30     2     8    1
    31     3     5    1
    32     3     4    1
    33    15    14    1
    34    14     8    1
    35    14    16    1
    36     8    13    1
    37     8     9    1
    38    12     9    1
    39     9    11    1
    40     9    10    1
