@<TRIPOS>MOLECULE
CSD_code = GAHHUV | q = 0 | S = 0 | Stoichiometry = C25H32CoIN4O2 | MND = 6
 65 70 0 0 0
SMALL
GASTEIGER

@<TRIPOS>ATOM
      1 CO          5.0863    3.9988   15.1374 Co.oh   1  UNL1        0.0000
      2 I           3.8717    6.0882   14.2501 I       1  UNL1        0.0000
      3 O           5.8321    3.6101   13.3077 O.2     1  UNL1        0.0000
      4 O           5.9922    2.4375   15.8009 O.3     1  UNL1        0.0000
      5 N           2.7264    2.9266   16.1954 N.pl3   1  UNL1        0.0000
      6 N           2.6346    2.3290   14.1333 N.pl3   1  UNL1        0.0000
      7 N           6.3778    5.4558   17.1500 N.pl3   1  UNL1        0.0000
      8 N           7.6363    5.7923   15.4410 N.pl3   1  UNL1        0.0000
      9 C           4.4622    4.2467   16.8695 C.ar    1  UNL1        0.0000
     10 C           3.3046    3.6058   17.2738 C.ar    1  UNL1        0.0000
     11 C           2.8787    3.6980   18.5899 C.ar    1  UNL1        0.0000
     12 H           1.9735    3.2137   18.9251 H       1  UNL1        0.0000
     13 C           3.6524    4.4296   19.4824 C.ar    1  UNL1        0.0000
     14 H           3.3287    4.5093   20.5094 H       1  UNL1        0.0000
     15 C           4.8343    5.0526   19.1011 C.ar    1  UNL1        0.0000
     16 H           5.4187    5.6000   19.8257 H       1  UNL1        0.0000
     17 C           5.2370    4.9444   17.7789 C.ar    1  UNL1        0.0000
     18 C           6.5302    5.1448   15.8339 C.3     1  UNL1        0.0000
     19 C           7.3821    6.2782   17.5700 C.2     1  UNL1        0.0000
     20 H           7.4562    6.6454   18.5727 H       1  UNL1        0.0000
     21 C           8.1733    6.4928   16.4908 C.2     1  UNL1        0.0000
     22 H           9.0650    7.0767   16.3888 H       1  UNL1        0.0000
     23 C           3.4041    2.9808   15.0165 C.3     1  UNL1        0.0000
     24 C           1.5559    2.2416   16.0470 C.2     1  UNL1        0.0000
     25 H           0.8675    2.0797   16.8505 H       1  UNL1        0.0000
     26 C           1.4971    1.8681   14.7456 C.2     1  UNL1        0.0000
     27 H           0.7489    1.3159   14.2148 H       1  UNL1        0.0000
     28 C           2.8828    2.2359   12.7176 C.3     1  UNL1        0.0000
     29 H           2.7017    1.2072   12.3879 H       1  UNL1        0.0000
     30 H           3.9301    2.4857   12.5455 H       1  UNL1        0.0000
     31 C           1.9987    3.2136   11.9402 C.3     1  UNL1        0.0000
     32 H           2.1523    4.2177   12.3390 H       1  UNL1        0.0000
     33 H           0.9468    2.9516   12.0783 H       1  UNL1        0.0000
     34 C           2.3397    3.2104   10.4537 C.3     1  UNL1        0.0000
     35 H           3.3920    3.4728   10.3308 H       1  UNL1        0.0000
     36 H           2.1943    2.2070   10.0438 H       1  UNL1        0.0000
     37 C           1.4800    4.2080    9.6886 C.3     1  UNL1        0.0000
     38 H           1.7414    4.2085    8.6331 H       1  UNL1        0.0000
     39 H           0.4258    3.9558    9.7813 H       1  UNL1        0.0000
     40 H           1.6292    5.2098   10.0833 H       1  UNL1        0.0000
     41 C           8.1258    5.8624   14.0883 C.3     1  UNL1        0.0000
     42 H           7.6560    5.0577   13.5220 H       1  UNL1        0.0000
     43 H           9.2108    5.7119   14.0905 H       1  UNL1        0.0000
     44 C           7.7707    7.2041   13.4437 C.3     1  UNL1        0.0000
     45 H           6.6921    7.3529   13.5153 H       1  UNL1        0.0000
     46 H           8.2613    8.0165   13.9854 H       1  UNL1        0.0000
     47 C           8.1828    7.2403   11.9757 C.3     1  UNL1        0.0000
     48 H           7.6869    6.4235   11.4483 H       1  UNL1        0.0000
     49 H           9.2623    7.0868   11.8918 H       1  UNL1        0.0000
     50 C           7.7997    8.5637   11.3266 C.3     1  UNL1        0.0000
     51 H           8.0847    8.5720   10.2773 H       1  UNL1        0.0000
     52 H           6.7257    8.7169   11.3955 H       1  UNL1        0.0000
     53 H           8.2975    9.3932   11.8243 H       1  UNL1        0.0000
     54 C           6.5730    2.6566   12.9633 C.2     1  UNL1        0.0000
     55 C           6.7163    1.6167   15.1749 C.3     1  UNL1        0.0000
     56 C           7.0386    1.6543   13.8199 C.2     1  UNL1        0.0000
     57 H           7.6719    0.8804   13.4173 H       1  UNL1        0.0000
     58 C           6.9881    2.5945   11.5076 C.3     1  UNL1        0.0000
     59 H           6.6357    1.6674   11.0599 H       1  UNL1        0.0000
     60 H           6.5655    3.4390   10.9683 H       1  UNL1        0.0000
     61 H           8.0729    2.6195   11.4272 H       1  UNL1        0.0000
     62 C           7.2856    0.4784   15.9980 C.3     1  UNL1        0.0000
     63 H           6.9504   -0.4747   15.5946 H       1  UNL1        0.0000
     64 H           8.3727    0.5024   15.9620 H       1  UNL1        0.0000
     65 H           6.9556    0.5711   17.0296 H       1  UNL1        0.0000
@<TRIPOS>BOND
     1    38    37    1
     2    37    39    1
     3    37    40    1
     4    37    34    1
     5    36    34    1
     6    51    50    1
     7    35    34    1
     8    34    31    1
     9    60    58    1
    10    59    58    1
    11    50    52    1
    12    50    53    1
    13    50    47    1
    14    61    58    1
    15    48    47    1
    16    58    54    1
    17    49    47    1
    18    31    33    1
    19    31    32    1
    20    31    28    1
    21    47    44    1
    22    29    28    1
    23    30    28    1
    24    28     6    1
    25    54     3    1
    26    54    56    2
    27     3     1    1
    28    57    56    1
    29    44    45    1
    30    44    46    1
    31    44    41    1
    32    42    41    1
    33    56    55    1
    34    41    43    1
    35    41     8    1
    36     6    26    1
    37     6    23    1
    38    27    26    1
    39     2     1    1
    40    26    24    2
    41    23     1    1
    42    23     5    1
    43     1     4    1
    44     1    18    1
    45     1     9    1
    46    55     4    1
    47    55    62    1
    48     8    18    1
    49     8    21    1
    50    63    62    1
    51    18     7    1
    52    64    62    1
    53    62    65    1
    54    24     5    1
    55    24    25    1
    56     5    10    1
    57    22    21    1
    58    21    19    2
    59     9    10   ar
    60     9    17   ar
    61     7    19    1
    62     7    17    1
    63    10    11   ar
    64    19    20    1
    65    17    15   ar
    66    11    12    1
    67    11    13   ar
    68    15    13   ar
    69    15    16    1
    70    13    14    1
