@<TRIPOS>MOLECULE
CSD_code = GAKMIO | q = 1 | S = 0 | Stoichiometry = C22H22CoN8O2(1+) | MND = 6
 55 62 0 0 0
SMALL
GASTEIGER

@<TRIPOS>ATOM
      1 CO         10.8094    4.5459    7.6353 Co.oh   1  UNL1        0.0000
      2 O          10.2043    3.0355   11.2461 O.2     1  UNL1        0.0000
      3 N           9.1738    5.1634    6.7894 N.pl3   1  UNL1        0.0000
      4 N           7.6701    5.7246    5.3035 N.pl3   1  UNL1        0.0000
      5 N           9.8460    3.9450    9.1721 N.am    1  UNL1        0.0000
      6 N          12.3262    3.8434    8.5364 N.pl3   1  UNL1        0.0000
      7 C           8.0229    5.5050    7.4509 C.2     1  UNL1        0.0000
      8 C           7.0798    5.8535    6.5253 C.2     1  UNL1        0.0000
      9 C           8.9257    5.3040    5.4989 C.3     1  UNL1        0.0000
     10 C           7.8902    5.4237    8.9301 C.3     1  UNL1        0.0000
     11 C           8.4304    4.0821    9.4327 C.3     1  UNL1        0.0000
     12 C          10.5857    3.4145   10.1463 C.2     1  UNL1        0.0000
     13 C          12.0265    3.3289    9.7347 C.3     1  UNL1        0.0000
     14 C          12.9752    2.7370   10.5557 C.2     1  UNL1        0.0000
     15 C          14.2861    2.6669   10.1204 C.2     1  UNL1        0.0000
     16 C          14.5917    3.1942    8.8736 C.2     1  UNL1        0.0000
     17 C          13.5876    3.7708    8.1149 C.2     1  UNL1        0.0000
     18 H          13.8075    4.1770    7.1387 H       1  UNL1        0.0000
     19 H          15.5968    3.1599    8.4851 H       1  UNL1        0.0000
     20 H          15.0501    2.2113   10.7309 H       1  UNL1        0.0000
     21 H          12.6491    2.3474   11.5079 H       1  UNL1        0.0000
     22 H           8.2722    3.9941   10.5135 H       1  UNL1        0.0000
     23 H           7.8739    3.2733    8.9404 H       1  UNL1        0.0000
     24 H           8.4426    6.2389    9.4024 H       1  UNL1        0.0000
     25 H           6.8392    5.5203    9.2012 H       1  UNL1        0.0000
     26 H           6.0673    6.1760    6.6487 H       1  UNL1        0.0000
     27 H           7.2337    5.9053    4.4123 H       1  UNL1        0.0000
     28 H           9.6162    5.1174    4.7002 H       1  UNL1        0.0000
     29 N          11.0925    6.2711    8.4813 N.pl3   1  UNL1        0.0000
     30 N          11.8115    5.0798    6.0986 N.am    1  UNL1        0.0000
     31 N          10.6594    2.8811    6.7342 N.pl3   1  UNL1        0.0000
     32 C          11.3721    7.4386    7.8197 C.2     1  UNL1        0.0000
     33 C          11.0947    6.5563    9.7718 C.3     1  UNL1        0.0000
     34 C          12.4006    6.3743    5.8380 C.3     1  UNL1        0.0000
     35 C          11.9011    4.1739    5.1244 C.2     1  UNL1        0.0000
     36 C          11.2549    2.8834    5.5359 C.3     1  UNL1        0.0000
     37 C          10.0916    1.7524    7.1557 C.2     1  UNL1        0.0000
     38 C          11.5418    8.4297    8.7454 C.2     1  UNL1        0.0000
     39 C          11.5089    7.5129    6.3405 C.3     1  UNL1        0.0000
     40 N          11.3583    7.8540    9.9671 N.pl3   1  UNL1        0.0000
     41 H          10.9111    5.8650   10.5705 H       1  UNL1        0.0000
     42 H          12.5559    6.4673    4.7571 H       1  UNL1        0.0000
     43 H          13.3793    6.4518    6.3303 H       1  UNL1        0.0000
     44 O          12.4200    4.3148    4.0245 O.2     1  UNL1        0.0000
     45 C          11.2931    1.7658    4.7150 C.2     1  UNL1        0.0000
     46 C          10.0888    0.5945    6.3971 C.2     1  UNL1        0.0000
     47 H           9.6298    1.7650    8.1320 H       1  UNL1        0.0000
     48 H          11.7687    9.4677    8.6219 H       1  UNL1        0.0000
     49 H          10.5267    7.4421    5.8683 H       1  UNL1        0.0000
     50 H          11.9507    8.4714    6.0695 H       1  UNL1        0.0000
     51 H          11.4200    8.3222   10.8583 H       1  UNL1        0.0000
     52 C          10.6983    0.5955    5.1502 C.2     1  UNL1        0.0000
     53 H          11.7935    1.8535    3.7627 H       1  UNL1        0.0000
     54 H           9.6160   -0.2931    6.7855 H       1  UNL1        0.0000
     55 H          10.7109   -0.2939    4.5397 H       1  UNL1        0.0000
@<TRIPOS>BOND
     1    53    45    1
     2    44    35    2
     3    27     4    1
     4    55    52    1
     5    28     9    1
     6    45    52    2
     7    45    36    1
     8    42    34    1
     9    35    36    1
    10    35    30   am
    11    52    46    1
    12     4     9    1
    13     4     8    1
    14     9     3    1
    15    36    31    1
    16    34    30    1
    17    34    43    1
    18    34    39    1
    19    49    39    1
    20    50    39    1
    21    30     1    1
    22    39    32    1
    23    46    54    1
    24    46    37    2
    25     8    26    1
    26     8     7    2
    27    31    37    1
    28    31     1    1
    29     3     7    1
    30     3     1    1
    31    18    17    1
    32    37    47    1
    33     7    10    1
    34     1    29    1
    35     1     6    1
    36     1     5    1
    37    32    29    1
    38    32    38    2
    39    17     6    1
    40    17    16    2
    41    29    33    1
    42    19    16    1
    43     6    13    1
    44    48    38    1
    45    38    40    1
    46    16    15    1
    47    10    25    1
    48    10    24    1
    49    10    11    1
    50    23    11    1
    51     5    11    1
    52     5    12   am
    53    11    22    1
    54    13    12    1
    55    13    14    1
    56    33    40    1
    57    33    41    1
    58    40    51    1
    59    15    14    2
    60    15    20    1
    61    12     2    2
    62    14    21    1
