@<TRIPOS>MOLECULE
CSD_code = GIRXOW | q = 0 | S = 0 | Stoichiometry = C17H36CoNOP2 | MND = 4
 58 59 0 0 0
SMALL
GASTEIGER

@<TRIPOS>ATOM
      1 CO          2.2977    2.1637   12.7900 Co.oh   1  UNL1        0.0000
      2 P           3.1951    1.2012   11.0796 P.3     1  UNL1        0.0000
      3 P           1.4971    3.4849   14.2972 P.3     1  UNL1        0.0000
      4 N           1.5987    3.3483   11.5797 N.3     1  UNL1        0.0000
      5 O           3.2252    0.1912   14.6783 O.3     1  UNL1        0.0000
      6 C           2.8424    0.9795   13.9151 C.3     1  UNL1        0.0000
      7 C           0.9798    4.6168   11.9124 C.3     1  UNL1        0.0000
      8 H           0.1479    4.8163   11.2105 H       1  UNL1        0.0000
      9 H           1.6980    5.4477   11.7686 H       1  UNL1        0.0000
     10 C          -0.3472    3.8500   16.4495 C.3     1  UNL1        0.0000
     11 H          -0.9235    4.5276   15.8226 H       1  UNL1        0.0000
     12 H           0.3599    4.4345   17.0332 H       1  UNL1        0.0000
     13 H          -1.0338    3.3641   17.1418 H       1  UNL1        0.0000
     14 C           1.4413   -0.9168   11.0529 C.3     1  UNL1        0.0000
     15 H           0.8318   -0.5970   10.2100 H       1  UNL1        0.0000
     16 H           1.1030   -0.3822   11.9440 H       1  UNL1        0.0000
     17 H           1.2801   -1.9830   11.2021 H       1  UNL1        0.0000
     18 C           1.8870    3.3622   10.1585 C.3     1  UNL1        0.0000
     19 H           2.6411    4.1388    9.9242 H       1  UNL1        0.0000
     20 H           0.9762    3.6522    9.6007 H       1  UNL1        0.0000
     21 C           2.9190   -0.6211   10.8065 C.3     1  UNL1        0.0000
     22 H           3.4961   -1.1161   11.5973 H       1  UNL1        0.0000
     23 C           5.3302    2.9080   10.8502 C.3     1  UNL1        0.0000
     24 H           4.9874    3.2690   11.8212 H       1  UNL1        0.0000
     25 H           4.8314    3.4854   10.0753 H       1  UNL1        0.0000
     26 H           6.4026    3.0818   10.7713 H       1  UNL1        0.0000
     27 C           0.3608    2.7973   15.6037 C.3     1  UNL1        0.0000
     28 H           1.0060    2.1850   16.2458 H       1  UNL1        0.0000
     29 C          -0.6359    1.8647   14.9192 C.3     1  UNL1        0.0000
     30 H          -1.1213    1.2166   15.6467 H       1  UNL1        0.0000
     31 H          -0.1143    1.2431   14.1871 H       1  UNL1        0.0000
     32 H          -1.4080    2.4291   14.4000 H       1  UNL1        0.0000
     33 C           5.0094    1.4226   10.7221 C.3     1  UNL1        0.0000
     34 H           5.2135    1.0905    9.6967 H       1  UNL1        0.0000
     35 C           2.3668    2.0036    9.6534 C.3     1  UNL1        0.0000
     36 H           3.0166    2.0942    8.7798 H       1  UNL1        0.0000
     37 H           1.5023    1.3890    9.3938 H       1  UNL1        0.0000
     38 C           3.5797    5.2657   14.2594 C.3     1  UNL1        0.0000
     39 H           4.3348    5.8585   14.7741 H       1  UNL1        0.0000
     40 H           3.0418    5.9158   13.5731 H       1  UNL1        0.0000
     41 H           4.0801    4.4906   13.6766 H       1  UNL1        0.0000
     42 C           0.4395    4.6387   13.3404 C.3     1  UNL1        0.0000
     43 H          -0.5739    4.2321   13.3491 H       1  UNL1        0.0000
     44 H           0.4237    5.6474   13.7600 H       1  UNL1        0.0000
     45 C           3.4121    3.8107   16.2908 C.3     1  UNL1        0.0000
     46 H           3.8996    2.9635   15.8100 H       1  UNL1        0.0000
     47 H           2.7641    3.4341   17.0788 H       1  UNL1        0.0000
     48 H           4.1786    4.4331   16.7507 H       1  UNL1        0.0000
     49 C           3.3732   -1.1379    9.4458 C.3     1  UNL1        0.0000
     50 H           3.1180   -2.1926    9.3497 H       1  UNL1        0.0000
     51 H           4.4490   -1.0407    9.3208 H       1  UNL1        0.0000
     52 H           2.8796   -0.5966    8.6411 H       1  UNL1        0.0000
     53 C           2.6288    4.6112   15.2559 C.3     1  UNL1        0.0000
     54 H           2.0270    5.3836   15.7507 H       1  UNL1        0.0000
     55 C           5.8384    0.6122   11.7127 C.3     1  UNL1        0.0000
     56 H           6.8969    0.8437   11.6007 H       1  UNL1        0.0000
     57 H           5.7079   -0.4569   11.5619 H       1  UNL1        0.0000
     58 H           5.5381    0.8564   12.7310 H       1  UNL1        0.0000
@<TRIPOS>BOND
     1    52    49    1
     2    36    35    1
     3    51    49    1
     4    50    49    1
     5    37    35    1
     6    49    21    1
     7    20    18    1
     8    35    18    1
     9    35     2    1
    10    34    33    1
    11    19    18    1
    12    25    23    1
    13    18     4    1
    14    15    14    1
    15    33    23    1
    16    33     2    1
    17    33    55    1
    18    26    23    1
    19    21    14    1
    20    21     2    1
    21    21    22    1
    22    23    24    1
    23    14    17    1
    24    14    16    1
    25     2     1    1
    26     8     7    1
    27    57    55    1
    28     4     7    1
    29     4     1    1
    30    56    55    1
    31    55    58    1
    32     9     7    1
    33     7    42    1
    34     1     6    1
    35     1     3    1
    36    42    43    1
    37    42    44    1
    38    42     3    1
    39    40    38    1
    40    41    38    1
    41     6     5    1
    42    31    29    1
    43    38    39    1
    44    38    53    1
    45     3    53    1
    46     3    27    1
    47    32    29    1
    48    29    27    1
    49    29    30    1
    50    53    54    1
    51    53    45    1
    52    27    28    1
    53    27    10    1
    54    46    45    1
    55    11    10    1
    56    45    48    1
    57    45    47    1
    58    10    12    1
    59    10    13    1
