@<TRIPOS>MOLECULE
CSD_code = GOBCOP | q = 0 | S = 0 | Stoichiometry = C20H37CoP2 | MND = 8
 60 61 0 0 0
SMALL
GASTEIGER

@<TRIPOS>ATOM
      1 CO          4.2799    3.2469    8.5605 Co.oh   1  UNL1        0.0000
      2 P           3.8873    3.2710    6.3466 P.3     1  UNL1        0.0000
      3 P           4.5110    5.1200    7.2743 P.3     1  UNL1        0.0000
      4 C           5.8916    4.3509    8.0891 C.3     1  UNL1        0.0000
      5 H           6.5700    3.7432    7.4888 H       1  UNL1        0.0000
      6 C           6.6702    5.2283    9.0411 C.3     1  UNL1        0.0000
      7 H           6.0096    5.8875    9.6001 H       1  UNL1        0.0000
      8 H           7.2480    4.6272    9.7415 H       1  UNL1        0.0000
      9 H           7.3777    5.8493    8.4851 H       1  UNL1        0.0000
     10 C           5.1019    2.7267    4.9546 C.3     1  UNL1        0.0000
     11 C           6.0100    1.6793    5.6065 C.3     1  UNL1        0.0000
     12 H           6.5067    2.0630    6.4937 H       1  UNL1        0.0000
     13 H           6.7748    1.3546    4.9011 H       1  UNL1        0.0000
     14 H           5.4233    0.8113    5.9035 H       1  UNL1        0.0000
     15 C           5.9150    3.9141    4.4466 C.3     1  UNL1        0.0000
     16 H           6.4740    4.3827    5.2540 H       1  UNL1        0.0000
     17 H           5.2666    4.6669    4.0036 H       1  UNL1        0.0000
     18 H           6.6242    3.5819    3.6881 H       1  UNL1        0.0000
     19 C           4.4067    2.0394    3.7814 C.3     1  UNL1        0.0000
     20 H           3.7927    1.2104    4.1259 H       1  UNL1        0.0000
     21 H           5.1655    1.6358    3.1102 H       1  UNL1        0.0000
     22 H           3.7944    2.7270    3.2059 H       1  UNL1        0.0000
     23 C           2.2184    3.8290    5.6234 C.3     1  UNL1        0.0000
     24 C           1.4195    2.6318    5.1043 C.3     1  UNL1        0.0000
     25 H           1.4135    1.8323    5.8425 H       1  UNL1        0.0000
     26 H           1.8174    2.2432    4.1733 H       1  UNL1        0.0000
     27 H           0.3875    2.9314    4.9226 H       1  UNL1        0.0000
     28 C           2.3776    4.8967    4.5442 C.3     1  UNL1        0.0000
     29 H           2.8487    4.5062    3.6463 H       1  UNL1        0.0000
     30 H           2.9761    5.7254    4.9209 H       1  UNL1        0.0000
     31 H           1.3964    5.2810    4.2659 H       1  UNL1        0.0000
     32 C           1.4451    4.4324    6.7982 C.3     1  UNL1        0.0000
     33 H           1.4486    3.7507    7.6459 H       1  UNL1        0.0000
     34 H           0.4120    4.6210    6.5079 H       1  UNL1        0.0000
     35 H           1.8867    5.3763    7.1132 H       1  UNL1        0.0000
     36 C           4.1996    3.2925   10.6280 C.3     1  UNL1        0.0000
     37 C           2.8469    3.0704   10.2050 C.2     1  UNL1        0.0000
     38 C           2.8420    1.9066    9.4182 C.2     1  UNL1        0.0000
     39 C           4.1770    1.3387    9.4313 C.3     1  UNL1        0.0000
     40 C           4.9975    2.1639   10.2217 C.3     1  UNL1        0.0000
     41 C           4.5804    4.3076   11.6589 C.3     1  UNL1        0.0000
     42 H           4.1393    5.2773   11.4370 H       1  UNL1        0.0000
     43 H           5.6580    4.4222   11.7298 H       1  UNL1        0.0000
     44 H           4.2071    3.9844   12.6332 H       1  UNL1        0.0000
     45 C           1.6719    3.8725   10.6729 C.3     1  UNL1        0.0000
     46 H           1.8537    4.9404   10.5655 H       1  UNL1        0.0000
     47 H           1.4882    3.6677   11.7300 H       1  UNL1        0.0000
     48 H           0.7719    3.6200   10.1172 H       1  UNL1        0.0000
     49 C           1.6435    1.1654    8.9093 C.3     1  UNL1        0.0000
     50 H           1.8409    0.7141    7.9387 H       1  UNL1        0.0000
     51 H           0.7750    1.8138    8.8192 H       1  UNL1        0.0000
     52 H           1.3953    0.3616    9.6058 H       1  UNL1        0.0000
     53 C           4.5175   -0.0293    8.9263 C.3     1  UNL1        0.0000
     54 H           3.9620   -0.2654    8.0214 H       1  UNL1        0.0000
     55 H           4.2602   -0.7736    9.6835 H       1  UNL1        0.0000
     56 H           5.5804   -0.1171    8.7133 H       1  UNL1        0.0000
     57 C           6.3670    1.8233   10.7222 C.3     1  UNL1        0.0000
     58 H           6.9296    1.2584    9.9818 H       1  UNL1        0.0000
     59 H           6.2825    1.2116   11.6231 H       1  UNL1        0.0000
     60 H           6.9327    2.7161   10.9758 H       1  UNL1        0.0000
@<TRIPOS>BOND
     1    21    19    1
     2    22    19    1
     3    29    28    1
     4    18    15    1
     5    19    20    1
     6    19    10    1
     7    17    15    1
     8    26    24    1
     9    31    28    1
    10    15    10    1
    11    15    16    1
    12    28    30    1
    13    28    23    1
    14    13    11    1
    15    27    24    1
    16    10    11    1
    17    10     2    1
    18    24    23    1
    19    24    25    1
    20    11    14    1
    21    11    12    1
    22    23     2    1
    23    23    32    1
    24     2     3    1
    25    34    32    1
    26    32    35    1
    27    32    33    1
    28     3     4    1
    29     5     4    1
    30    50    49    1
    31    54    53    1
    32     4     1    1
    33     4     6    1
    34     9     6    1
    35     1    39    1
    36     1    36    1
    37    56    53    1
    38    51    49    1
    39    49    38    1
    40    49    52    1
    41    53    39    1
    42    53    55    1
    43     6     7    1
    44     6     8    1
    45    38    39    1
    46    38    37    2
    47    39    40    1
    48    58    57    1
    49    48    45    1
    50    37    36    1
    51    37    45    1
    52    40    36    1
    53    40    57    1
    54    46    45    1
    55    36    41    1
    56    45    47    1
    57    57    60    1
    58    57    59    1
    59    42    41    1
    60    41    43    1
    61    41    44    1
