@<TRIPOS>MOLECULE
CSD_code = GOFGEN | q = 0 | S = 0 | Stoichiometry = C14H11CoN2O4S2 | MND = 8
 34 34 0 0 0
SMALL
GASTEIGER

@<TRIPOS>ATOM
      1 CO         -0.6461    0.9113    6.7853 Co.oh   1  UNL1        0.0000
      2 S          -1.3051    2.6167    8.0238 S.3     1  UNL1        0.0000
      3 S           1.3533    0.8067    7.8742 S.2     1  UNL1        0.0000
      4 O           0.9876    4.4845   10.5561 O.2     1  UNL1        0.0000
      5 O          -1.1629    4.6343    9.8893 O.3     1  UNL1        0.0000
      6 O           2.5596    1.9046   10.8861 O.2     1  UNL1        0.0000
      7 O           3.2347    3.2427    9.2060 O.3     1  UNL1        0.0000
      8 N          -0.8725   -0.0149   10.6705 N.1     1  UNL1        0.0000
      9 N          -4.1648    0.3070    7.9788 N.1     1  UNL1        0.0000
     10 C           0.1200    2.9222    9.0150 C.3     1  UNL1        0.0000
     11 C           1.2174    2.1228    8.9183 C.2     1  UNL1        0.0000
     12 C           0.0585    4.0778    9.9009 C.2     1  UNL1        0.0000
     13 C          -1.3348    5.7673   10.7294 C.3     1  UNL1        0.0000
     14 C           2.4030    2.4097    9.8144 C.2     1  UNL1        0.0000
     15 C           4.3487    3.6731    9.9834 C.3     1  UNL1        0.0000
     16 C          -1.7127    0.9046    8.4340 C.3     1  UNL1        0.0000
     17 C          -1.2346    0.4019    9.6659 C.1     1  UNL1        0.0000
     18 C          -3.0657    0.5746    8.1740 C.1     1  UNL1        0.0000
     19 C          -1.7097   -0.4382    5.5416 C.2     1  UNL1        0.0000
     20 C          -1.9905    0.8994    5.1719 C.2     1  UNL1        0.0000
     21 C          -0.7726    1.5182    4.7665 C.2     1  UNL1        0.0000
     22 C           0.2612    0.5849    4.9406 C.2     1  UNL1        0.0000
     23 C          -0.3133   -0.6259    5.4465 C.3     1  UNL1        0.0000
     24 H          -1.0940    5.5092   11.7621 H       1  UNL1        0.0000
     25 H          -2.3790    6.0542   10.6372 H       1  UNL1        0.0000
     26 H          -0.6809    6.5796   10.4063 H       1  UNL1        0.0000
     27 H           3.9920    4.2739   10.8216 H       1  UNL1        0.0000
     28 H           4.9687    4.2676    9.3177 H       1  UNL1        0.0000
     29 H           4.8990    2.8114   10.3653 H       1  UNL1        0.0000
     30 H          -2.4408   -1.1893    5.7918 H       1  UNL1        0.0000
     31 H          -2.9760    1.3283    5.0809 H       1  UNL1        0.0000
     32 H          -0.6812    2.4959    4.3227 H       1  UNL1        0.0000
     33 H           1.2930    0.7128    4.6559 H       1  UNL1        0.0000
     34 H           0.2135   -1.5572    5.5821 H       1  UNL1        0.0000
@<TRIPOS>BOND
     1    32    21    1
     2    33    22    1
     3    21    22    2
     4    21    20    1
     5    22    23    1
     6    31    20    1
     7    20    19    2
     8    23    19    1
     9    23    34    1
    10    23     1    1
    11    19    30    1
    12     1    16    1
    13     3    11    2
    14     9    18    3
    15     2    16    1
    16     2    10    1
    17    18    16    1
    18    16    17    1
    19    11    10    1
    20    11    14    1
    21    10    12    1
    22     7    14    1
    23     7    15    1
    24    28    15    1
    25    17     8    3
    26    14     6    2
    27     5    12    1
    28     5    13    1
    29    12     4    2
    30    15    29    1
    31    15    27    1
    32    26    13    1
    33    25    13    1
    34    13    24    1
