@<TRIPOS>MOLECULE
CSD_code = GOVBIE | q = -1 | S = 0 | Stoichiometry = C26H16Cl2CoN2O4(1-) | MND = 6
 51 58 0 0 0
SMALL
GASTEIGER

@<TRIPOS>ATOM
      1 CO         -4.0097    1.1990   11.3189 Co.oh   1  UNL1        0.0000
      2 N          -2.8208    1.0057    9.8829 N.pl3   1  UNL1        0.0000
      3 O          -3.1020    2.7971   11.7149 O.3     1  UNL1        0.0000
      4 O          -4.9476   -0.3760   10.9862 O.3     1  UNL1        0.0000
      5 C          -2.1364    2.9990   10.8874 C.ar    1  UNL1        0.0000
      6 C          -1.2877    4.1201   10.9642 C.ar    1  UNL1        0.0000
      7 C          -0.2609    4.2877   10.0631 C.ar    1  UNL1        0.0000
      8 C          -0.0610    3.3401    9.0677 C.ar    1  UNL1        0.0000
      9 CL          1.2478    3.5606    7.9425 Cl      1  UNL1        0.0000
     10 C          -0.8681    2.2273    8.9450 C.ar    1  UNL1        0.0000
     11 C          -1.9128    2.0499    9.8479 C.ar    1  UNL1        0.0000
     12 C          -2.8419    0.0465    9.0092 C.3     1  UNL1        0.0000
     13 C          -3.7421   -1.0494    9.0162 C.ar    1  UNL1        0.0000
     14 C          -3.6361   -2.0192    8.0028 C.ar    1  UNL1        0.0000
     15 C          -4.4675   -3.1070    7.9483 C.ar    1  UNL1        0.0000
     16 C          -5.4533   -3.2609    8.9286 C.ar    1  UNL1        0.0000
     17 C          -5.5901   -2.3385    9.9294 C.ar    1  UNL1        0.0000
     18 C          -4.7507   -1.1955   10.0219 C.ar    1  UNL1        0.0000
     19 N          -5.2141    1.5313   12.7159 N.pl3   1  UNL1        0.0000
     20 O          -5.2016    2.1415   10.2116 O.3     1  UNL1        0.0000
     21 O          -2.7893    0.2502   12.3580 O.3     1  UNL1        0.0000
     22 C          -6.2285    2.5466   10.8745 C.ar    1  UNL1        0.0000
     23 C          -7.2778    3.2768   10.2841 C.ar    1  UNL1        0.0000
     24 C          -8.3590    3.6840   11.0324 C.ar    1  UNL1        0.0000
     25 C          -8.4140    3.3702   12.3841 C.ar    1  UNL1        0.0000
     26 CL         -9.7900    3.8869   13.3155 Cl      1  UNL1        0.0000
     27 C          -7.4107    2.6600   13.0114 C.ar    1  UNL1        0.0000
     28 C          -6.3108    2.2457   12.2652 C.ar    1  UNL1        0.0000
     29 C          -5.0552    1.1691   13.9518 C.3     1  UNL1        0.0000
     30 C          -3.9542    0.4304   14.4550 C.ar    1  UNL1        0.0000
     31 C          -3.9259    0.1047   15.8232 C.ar    1  UNL1        0.0000
     32 C          -2.8950   -0.6062   16.3794 C.ar    1  UNL1        0.0000
     33 H          -2.8951   -0.8449   17.4335 H       1  UNL1        0.0000
     34 C          -1.8363   -1.0216   15.5652 C.ar    1  UNL1        0.0000
     35 C          -1.8261   -0.7239   14.2300 C.ar    1  UNL1        0.0000
     36 C          -2.8748    0.0105   13.6132 C.ar    1  UNL1        0.0000
     37 H          -1.4576    4.8432   11.7469 H       1  UNL1        0.0000
     38 H           0.3909    5.1467   10.1252 H       1  UNL1        0.0000
     39 H          -0.6705    1.5170    8.1567 H       1  UNL1        0.0000
     40 H          -2.1209    0.0553    8.1914 H       1  UNL1        0.0000
     41 H          -2.8685   -1.8904    7.2499 H       1  UNL1        0.0000
     42 H          -4.3672   -3.8395    7.1600 H       1  UNL1        0.0000
     43 H          -6.1129   -4.1181    8.8925 H       1  UNL1        0.0000
     44 H          -6.3496   -2.4500   10.6895 H       1  UNL1        0.0000
     45 H          -7.2164    3.5089    9.2321 H       1  UNL1        0.0000
     46 H          -9.1634    4.2432   10.5777 H       1  UNL1        0.0000
     47 H          -7.5007    2.4392   14.0642 H       1  UNL1        0.0000
     48 H          -5.8126    1.4406   14.6875 H       1  UNL1        0.0000
     49 H          -4.7510    0.4312   16.4440 H       1  UNL1        0.0000
     50 H          -1.0187   -1.5832   15.9979 H       1  UNL1        0.0000
     51 H          -1.0116   -1.0406   13.5950 H       1  UNL1        0.0000
@<TRIPOS>BOND
     1    42    15    1
     2    41    14    1
     3     9     8    1
     4    15    14   ar
     5    15    16   ar
     6    14    13   ar
     7    39    10    1
     8    40    12    1
     9    43    16    1
    10    16    17   ar
    11    10     8   ar
    12    10    11   ar
    13    12    13    1
    14    12     2    1
    15    13    18   ar
    16     8     7   ar
    17    45    23    1
    18    11     2    1
    19    11     5   ar
    20     2     1    1
    21    17    18   ar
    22    17    44    1
    23    18     4    1
    24     7    38    1
    25     7     6   ar
    26    20    22    1
    27    20     1    1
    28    23    22   ar
    29    23    24   ar
    30    46    24    1
    31    22    28   ar
    32     5     6   ar
    33     5     3    1
    34     6    37    1
    35     4     1    1
    36    24    25   ar
    37     1     3    1
    38     1    21    1
    39     1    19    1
    40    28    19    1
    41    28    27   ar
    42    21    36    1
    43    25    27   ar
    44    25    26    1
    45    19    29    1
    46    27    47    1
    47    51    35    1
    48    36    35   ar
    49    36    30   ar
    50    29    30    1
    51    29    48    1
    52    35    34   ar
    53    30    31   ar
    54    34    50    1
    55    34    32   ar
    56    31    32   ar
    57    31    49    1
    58    32    33    1
