@<TRIPOS>MOLECULE
CSD_code = GOVBEA | q = -1 | S = 0 | Stoichiometry = C28H22CoN2O4(1-) | MND = 6
 57 64 0 0 0
SMALL
GASTEIGER

@<TRIPOS>ATOM
      1 CO         -4.1214    1.1804   11.3301 Co.oh   1  UNL1        0.0000
      2 N          -2.9277    0.9827    9.9006 N.pl3   1  UNL1        0.0000
      3 O          -3.2195    2.7800   11.7233 O.3     1  UNL1        0.0000
      4 O          -5.0557   -0.4050   11.0014 O.3     1  UNL1        0.0000
      5 C          -2.2498    2.9795   10.8950 C.ar    1  UNL1        0.0000
      6 C          -1.4022    4.1001   10.9643 C.ar    1  UNL1        0.0000
      7 C          -0.3787    4.2557   10.0579 C.ar    1  UNL1        0.0000
      8 C          -0.1488    3.3203    9.0490 C.ar    1  UNL1        0.0000
      9 C           0.9965    3.4947    8.0896 C.3     1  UNL1        0.0000
     10 C          -0.9755    2.2130    8.9606 C.ar    1  UNL1        0.0000
     11 C          -2.0212    2.0298    9.8612 C.ar    1  UNL1        0.0000
     12 C          -2.9396    0.0164    9.0361 C.3     1  UNL1        0.0000
     13 C          -3.8355   -1.0853    9.0438 C.ar    1  UNL1        0.0000
     14 C          -3.7173   -2.0606    8.0393 C.ar    1  UNL1        0.0000
     15 C          -4.5436   -3.1538    7.9841 C.ar    1  UNL1        0.0000
     16 C          -5.5363   -3.3052    8.9563 C.ar    1  UNL1        0.0000
     17 C          -5.6846   -2.3758    9.9502 C.ar    1  UNL1        0.0000
     18 C          -4.8507   -1.2293   10.0432 C.ar    1  UNL1        0.0000
     19 N          -5.3278    1.5181   12.7221 N.pl3   1  UNL1        0.0000
     20 O          -5.3119    2.1108   10.2149 O.3     1  UNL1        0.0000
     21 O          -2.8987    0.2343   12.3809 O.3     1  UNL1        0.0000
     22 C          -6.3446    2.5144   10.8757 C.ar    1  UNL1        0.0000
     23 C          -7.4002    3.2318   10.2839 C.ar    1  UNL1        0.0000
     24 C          -8.4793    3.6313   11.0384 C.ar    1  UNL1        0.0000
     25 C          -8.5659    3.3407   12.4001 C.ar    1  UNL1        0.0000
     26 C          -9.7463    3.8053   13.2084 C.3     1  UNL1        0.0000
     27 C          -7.5357    2.6381   13.0019 C.ar    1  UNL1        0.0000
     28 C          -6.4290    2.2242   12.2656 C.ar    1  UNL1        0.0000
     29 C          -5.1639    1.1753   13.9619 C.3     1  UNL1        0.0000
     30 C          -4.0609    0.4433   14.4758 C.ar    1  UNL1        0.0000
     31 C          -4.0309    0.1383   15.8471 C.ar    1  UNL1        0.0000
     32 C          -3.0008   -0.5675   16.4143 C.ar    1  UNL1        0.0000
     33 C          -1.9456   -0.9982   15.6053 C.ar    1  UNL1        0.0000
     34 C          -1.9371   -0.7190   14.2654 C.ar    1  UNL1        0.0000
     35 C          -2.9831    0.0101   13.6388 C.ar    1  UNL1        0.0000
     36 H          -1.5728    4.8286   11.7431 H       1  UNL1        0.0000
     37 H           0.2659    5.1233   10.1268 H       1  UNL1        0.0000
     38 H           1.2527    4.5472    7.9801 H       1  UNL1        0.0000
     39 H           0.7469    3.0926    7.1091 H       1  UNL1        0.0000
     40 H           1.8828    2.9689    8.4517 H       1  UNL1        0.0000
     41 H          -0.7880    1.4911    8.1771 H       1  UNL1        0.0000
     42 H          -2.2124    0.0209    8.2230 H       1  UNL1        0.0000
     43 H          -2.9439   -1.9336    7.2910 H       1  UNL1        0.0000
     44 H          -4.4322   -3.8912    7.2012 H       1  UNL1        0.0000
     45 H          -6.1928   -4.1655    8.9205 H       1  UNL1        0.0000
     46 H          -6.4504   -2.4855   10.7046 H       1  UNL1        0.0000
     47 H          -7.3445    3.4566    9.2290 H       1  UNL1        0.0000
     48 H          -9.2838    4.1817   10.5666 H       1  UNL1        0.0000
     49 H         -10.6291    3.9081   12.5798 H       1  UNL1        0.0000
     50 H          -9.5410    4.7772   13.6628 H       1  UNL1        0.0000
     51 H          -9.9691    3.1023   14.0095 H       1  UNL1        0.0000
     52 H          -7.6117    2.4141   14.0575 H       1  UNL1        0.0000
     53 H          -5.9196    1.4576   14.6961 H       1  UNL1        0.0000
     54 H          -4.8541    0.4768   16.4646 H       1  UNL1        0.0000
     55 H          -3.0010   -0.7901   17.4724 H       1  UNL1        0.0000
     56 H          -1.1290   -1.5568   16.0451 H       1  UNL1        0.0000
     57 H          -1.1242   -1.0473   13.6338 H       1  UNL1        0.0000
@<TRIPOS>BOND
     1    39     9    1
     2    44    15    1
     3    43    14    1
     4    38     9    1
     5    15    14   ar
     6    15    16   ar
     7    14    13   ar
     8     9    40    1
     9     9     8    1
    10    41    10    1
    11    42    12    1
    12    45    16    1
    13    16    17   ar
    14    10     8   ar
    15    10    11   ar
    16    12    13    1
    17    12     2    1
    18    13    18   ar
    19     8     7   ar
    20    47    23    1
    21    11     2    1
    22    11     5   ar
    23     2     1    1
    24    17    18   ar
    25    17    46    1
    26    18     4    1
    27     7    37    1
    28     7     6   ar
    29    20    22    1
    30    20     1    1
    31    23    22   ar
    32    23    24   ar
    33    48    24    1
    34    22    28   ar
    35     5     6   ar
    36     5     3    1
    37     6    36    1
    38     4     1    1
    39    24    25   ar
    40     1     3    1
    41     1    21    1
    42     1    19    1
    43    28    19    1
    44    28    27   ar
    45    21    35    1
    46    25    27   ar
    47    25    26    1
    48    49    26    1
    49    19    29    1
    50    27    52    1
    51    26    50    1
    52    26    51    1
    53    57    34    1
    54    35    34   ar
    55    35    30   ar
    56    29    30    1
    57    29    53    1
    58    34    33   ar
    59    30    31   ar
    60    33    56    1
    61    33    32   ar
    62    31    32   ar
    63    31    54    1
    64    32    55    1
