@<TRIPOS>MOLECULE
CSD_code = GUGQUV | q = 0 | S = 0 | Stoichiometry = C45H74CoP3 | MND = 6
 123 122 0 0 0
SMALL
GASTEIGER

@<TRIPOS>ATOM
      1 CO          1.2576    3.2374    6.0126 Co.oh   1  UNL1        0.0000
      2 P           2.5203    4.1835    7.6244 P.3     2  UNL2        0.0000
      3 P          -0.8016    2.7204    7.0533 P.3     3  UNL3        0.0000
      4 P           0.6155    5.0507    4.9799 P.3     4  UNL4        0.0000
      5 C           4.3985   -0.9483    6.5357 C.ar    1  UNL1        0.0000
      6 H           4.9512   -0.4011    7.2884 H       1  UNL1        0.0000
      7 C           3.9137   -2.2125    6.8485 C.ar    1  UNL1        0.0000
      8 C           3.1753   -2.9109    5.8903 C.ar    1  UNL1        0.0000
      9 C           3.0016   -2.3351    4.6416 C.ar    1  UNL1        0.0000
     10 H           2.4567   -2.8876    3.8918 H       1  UNL1        0.0000
     11 C           3.5069   -1.0873    4.3105 C.ar    1  UNL1        0.0000
     12 C           4.1961   -0.3656    5.2893 C.ar    1  UNL1        0.0000
     13 C           4.2243   -2.8075    8.1765 C.ar    1  UNL1        0.0000
     14 C           3.4335   -2.5123    9.2902 C.ar    1  UNL1        0.0000
     15 C           3.7535   -3.0745   10.5188 C.ar    1  UNL1        0.0000
     16 H           3.1486   -2.8520   11.3851 H       1  UNL1        0.0000
     17 C           4.8414   -3.9139   10.6511 C.ar    1  UNL1        0.0000
     18 H           5.0818   -4.3434   11.6131 H       1  UNL1        0.0000
     19 C           5.6257   -4.1977    9.5499 C.ar    1  UNL1        0.0000
     20 H           6.4809   -4.8463    9.6637 H       1  UNL1        0.0000
     21 C           5.3279   -3.6591    8.3062 C.ar    1  UNL1        0.0000
     22 C           4.7152    0.9969    5.0075 C.ar    1  UNL1        0.0000
     23 C           6.0815    1.2270    4.8270 C.ar    1  UNL1        0.0000
     24 C           6.5171    2.5052    4.4971 C.ar    1  UNL1        0.0000
     25 H           7.5720    2.6936    4.3626 H       1  UNL1        0.0000
     26 C           5.6194    3.5410    4.3223 C.ar    1  UNL1        0.0000
     27 H           5.9753    4.5245    4.0465 H       1  UNL1        0.0000
     28 C           4.2707    3.3151    4.5093 C.ar    1  UNL1        0.0000
     29 H           3.5550    4.1144    4.3980 H       1  UNL1        0.0000
     30 C           3.8051    2.0586    4.8736 C.ar    1  UNL1        0.0000
     31 C           3.3731   -0.5784    2.8940 C.3     1  UNL1        0.0000
     32 H           3.6702    0.4740    2.8727 H       1  UNL1        0.0000
     33 C           4.3277   -1.3612    1.9871 C.3     1  UNL1        0.0000
     34 H           4.0624   -2.4165    1.9710 H       1  UNL1        0.0000
     35 H           5.3500   -1.2734    2.3477 H       1  UNL1        0.0000
     36 H           4.2842   -0.9778    0.9696 H       1  UNL1        0.0000
     37 C           1.9409   -0.6787    2.3687 C.3     1  UNL1        0.0000
     38 H           1.6472   -1.7139    2.2108 H       1  UNL1        0.0000
     39 H           1.8570   -0.1578    1.4168 H       1  UNL1        0.0000
     40 H           1.2500   -0.2239    3.0731 H       1  UNL1        0.0000
     41 C           2.5623   -4.2580    6.1941 C.3     1  UNL1        0.0000
     42 H           2.8721   -4.5565    7.2014 H       1  UNL1        0.0000
     43 C           1.0349   -4.1532    6.1714 C.3     1  UNL1        0.0000
     44 H           0.6968   -3.3755    6.8521 H       1  UNL1        0.0000
     45 H           0.5857   -5.0981    6.4713 H       1  UNL1        0.0000
     46 H           0.6815   -3.9067    5.1726 H       1  UNL1        0.0000
     47 C           3.0339   -5.3299    5.2091 C.3     1  UNL1        0.0000
     48 H           2.6538   -5.1350    4.2090 H       1  UNL1        0.0000
     49 H           2.6756   -6.3090    5.5216 H       1  UNL1        0.0000
     50 H           4.1195   -5.3573    5.1623 H       1  UNL1        0.0000
     51 C           2.2598   -1.5667    9.1878 C.3     1  UNL1        0.0000
     52 H           2.1233   -1.2955    8.1359 H       1  UNL1        0.0000
     53 C           0.9670   -2.2127    9.6898 C.3     1  UNL1        0.0000
     54 H           0.7975   -3.1648    9.1918 H       1  UNL1        0.0000
     55 H           0.1188   -1.5603    9.4903 H       1  UNL1        0.0000
     56 H           1.0087   -2.3927   10.7613 H       1  UNL1        0.0000
     57 C           2.5660   -0.2919    9.9772 C.3     1  UNL1        0.0000
     58 H           2.6581   -0.5082   11.0394 H       1  UNL1        0.0000
     59 H           1.7729    0.4399    9.8413 H       1  UNL1        0.0000
     60 H           3.5048    0.1397    9.6365 H       1  UNL1        0.0000
     61 C           6.2206   -3.9660    7.1256 C.3     1  UNL1        0.0000
     62 H           5.7257   -3.6124    6.2156 H       1  UNL1        0.0000
     63 C           6.4806   -5.4665    6.9767 C.3     1  UNL1        0.0000
     64 H           6.9699   -5.6670    6.0253 H       1  UNL1        0.0000
     65 H           5.5466   -6.0227    7.0111 H       1  UNL1        0.0000
     66 H           7.1273   -5.8350    7.7692 H       1  UNL1        0.0000
     67 C           7.5401   -3.2050    7.2735 C.3     1  UNL1        0.0000
     68 H           7.3478   -2.1394    7.3628 H       1  UNL1        0.0000
     69 H           8.1749   -3.3739    6.4059 H       1  UNL1        0.0000
     70 H           8.0743   -3.5331    8.1627 H       1  UNL1        0.0000
     71 C           7.1010    0.1201    4.9766 C.3     1  UNL1        0.0000
     72 H           6.5731   -0.8216    5.1567 H       1  UNL1        0.0000
     73 C           8.0124    0.4018    6.1741 C.3     1  UNL1        0.0000
     74 H           8.5403    1.3437    6.0435 H       1  UNL1        0.0000
     75 H           8.7498   -0.3906    6.2846 H       1  UNL1        0.0000
     76 H           7.4299    0.4654    7.0914 H       1  UNL1        0.0000
     77 C           7.9357   -0.0440    3.7042 C.3     1  UNL1        0.0000
     78 H           7.2901   -0.1704    2.8377 H       1  UNL1        0.0000
     79 H           8.5772   -0.9191    3.7883 H       1  UNL1        0.0000
     80 H           8.5668    0.8244    3.5330 H       1  UNL1        0.0000
     81 C           2.3629    1.8357    5.1013 C.3     1  UNL1        0.0000
     82 C           1.3744    2.2672    4.1950 C.3     1  UNL1        0.0000
     83 H           0.4493    1.7035    4.1302 H       1  UNL1        0.0000
     84 H           1.6911    2.6862    3.2449 H       1  UNL1        0.0000
     85 C           1.8716    1.3267    6.3252 C.3     1  UNL1        0.0000
     86 H           2.5895    1.0207    7.0760 H       1  UNL1        0.0000
     87 H           1.0073    0.6687    6.2790 H       1  UNL1        0.0000
     88 C           1.7111    4.9685    9.0863 C.3     2  UNL2        0.0000
     89 H           2.4519    5.3748    9.7739 H       2  UNL2        0.0000
     90 H           1.1129    4.2192    9.6005 H       2  UNL2        0.0000
     91 H           1.0500    5.7643    8.7500 H       2  UNL2        0.0000
     92 C           3.6652    5.5592    7.1766 C.3     2  UNL2        0.0000
     93 H           3.1166    6.3561    6.6799 H       2  UNL2        0.0000
     94 H           4.4168    5.1723    6.4920 H       2  UNL2        0.0000
     95 H           4.1550    5.9568    8.0650 H       2  UNL2        0.0000
     96 C           3.7462    3.1470    8.5197 C.3     2  UNL2        0.0000
     97 H           4.4020    2.6737    7.7910 H       2  UNL2        0.0000
     98 H           3.2212    2.3757    9.0770 H       2  UNL2        0.0000
     99 H           4.3389    3.7519    9.2053 H       2  UNL2        0.0000
    100 C          -1.9350    1.6385    6.0799 C.3     3  UNL3        0.0000
    101 H          -2.8201    1.3788    6.6595 H       3  UNL3        0.0000
    102 H          -1.4050    0.7291    5.8045 H       3  UNL3        0.0000
    103 H          -2.2348    2.1501    5.1680 H       3  UNL3        0.0000
    104 C          -0.7007    1.6765    8.5686 C.3     3  UNL3        0.0000
    105 H          -1.6938    1.3846    8.9094 H       3  UNL3        0.0000
    106 H          -0.1984    2.2356    9.3550 H       3  UNL3        0.0000
    107 H          -0.1145    0.7886    8.3479 H       3  UNL3        0.0000
    108 C          -2.0629    3.9188    7.6835 C.3     3  UNL3        0.0000
    109 H          -2.4335    4.5316    6.8646 H       3  UNL3        0.0000
    110 H          -1.5956    4.5689    8.4208 H       3  UNL3        0.0000
    111 H          -2.8998    3.3965    8.1453 H       3  UNL3        0.0000
    112 C           0.0532    6.5361    5.9237 C.3     4  UNL4        0.0000
    113 H          -0.3616    7.2884    5.2535 H       4  UNL4        0.0000
    114 H           0.8940    6.9629    6.4664 H       4  UNL4        0.0000
    115 H          -0.7029    6.2349    6.6442 H       4  UNL4        0.0000
    116 C           1.6720    5.9216    3.7447 C.3     4  UNL4        0.0000
    117 H           1.9543    5.2249    2.9581 H       4  UNL4        0.0000
    118 H           2.5750    6.2949    4.2237 H       4  UNL4        0.0000
    119 H           1.1285    6.7577    3.3051 H       4  UNL4        0.0000
    120 C          -0.8745    4.8274    3.9240 C.3     4  UNL4        0.0000
    121 H          -1.1613    5.7645    3.4473 H       4  UNL4        0.0000
    122 H          -1.6945    4.4664    4.5405 H       4  UNL4        0.0000
    123 H          -0.6593    4.0812    3.1628 H       4  UNL4        0.0000
@<TRIPOS>BOND
     1    36    33    1
     2    39    37    1
     3    34    33    1
     4    33    35    1
     5    33    31    1
     6    38    37    1
     7    37    31    1
     8    37    40    1
     9    78    77    1
    10    32    31    1
    11    31    11    1
    12   117   116    1
    13   123   120    1
    14    84    82    1
    15   119   116    1
    16   121   120    1
    17    80    77    1
    18    77    79    1
    19    77    71    1
    20   116   118    1
    21   116     4    1
    22    10     9    1
    23   120   122    1
    24   120     4    1
    25    27    26    1
    26    83    82    1
    27    82    81    1
    28    48    47    1
    29    11     9   ar
    30    11    12   ar
    31    26    24   ar
    32    26    28   ar
    33    25    24    1
    34    29    28    1
    35    24    23   ar
    36    28    30   ar
    37     9     8   ar
    38    23    71    1
    39    23    22   ar
    40    30    22   ar
    41    30    81    1
    42    71    72    1
    43    71    73    1
    44     4   112    1
    45    22    12    1
    46    81     1    1
    47    81    85    1
    48    50    47    1
    49   103   100    1
    50    46    43    1
    51    47    49    1
    52    47    41    1
    53   113   112    1
    54    12     5   ar
    55   102   100    1
    56     8    41    1
    57     8     7   ar
    58   112   114    1
    59   112   115    1
    60    64    63    1
    61    74    73    1
    62   100   101    1
    63   100     3    1
    64    43    41    1
    65    43    45    1
    66    43    44    1
    67    73    75    1
    68    73    76    1
    69    41    42    1
    70    62    61    1
    71    87    85    1
    72    85    86    1
    73    69    67    1
    74    94    92    1
    75     5     7   ar
    76     5     6    1
    77    93    92    1
    78     7    13    1
    79   109   108    1
    80    63    65    1
    81    63    61    1
    82    63    66    1
    83     3   108    1
    84     3   104    1
    85    61    67    1
    86    61    21    1
    87    92     2    1
    88    92    95    1
    89    67    68    1
    90    67    70    1
    91     2    96    1
    92     2    88    1
    93   108   111    1
    94   108   110    1
    95    97    96    1
    96    52    51    1
    97    13    21   ar
    98    13    14   ar
    99    21    19   ar
   100   107   104    1
   101    96    98    1
   102    96    99    1
   103   104   105    1
   104   104   106    1
   105    91    88    1
   106    88    90    1
   107    88    89    1
   108    51    14    1
   109    51    53    1
   110    51    57    1
   111    54    53    1
   112    14    15   ar
   113    55    53    1
   114    19    20    1
   115    19    17   ar
   116    60    57    1
   117    53    56    1
   118    59    57    1
   119    57    58    1
   120    15    17   ar
   121    15    16    1
   122    17    18    1
