@<TRIPOS>MOLECULE
CSD_code = GUKDUN | q = 0 | S = 0 | Stoichiometry = C21H28CoN2P | MND = 4
 53 57 0 0 0
SMALL
GASTEIGER

@<TRIPOS>ATOM
      1 CO          0.1382    0.3696    0.1520 Co.oh   1  UNL1        0.0000
      2 P           1.8836    0.5056   -1.1246 P.3     1  UNL1        0.0000
      3 N           0.7797    1.9154    0.8734 N.pl3   1  UNL1        0.0000
      4 N          -1.4355    0.6528    1.2597 N.pl3   1  UNL1        0.0000
      5 C           3.5676   -0.4874    0.7775 C.3     1  UNL1        0.0000
      6 H           4.2961   -1.2282    1.1038 H       1  UNL1        0.0000
      7 H           2.6179   -0.6877    1.2781 H       1  UNL1        0.0000
      8 H           3.9171    0.4961    1.0886 H       1  UNL1        0.0000
      9 C          -1.0088    1.4323    2.2929 C.ar    1  UNL1        0.0000
     10 C           0.5088    1.2931   -3.3374 C.3     1  UNL1        0.0000
     11 H           0.3050    1.2369   -4.4056 H       1  UNL1        0.0000
     12 H           0.5871    2.3429   -3.0613 H       1  UNL1        0.0000
     13 H          -0.3346    0.8621   -2.7943 H       1  UNL1        0.0000
     14 C          -1.7278    1.6281    3.4910 C.ar    1  UNL1        0.0000
     15 C          -3.2305   -0.5604    0.1584 C.3     1  UNL1        0.0000
     16 H          -2.5963   -0.3860   -0.7069 H       1  UNL1        0.0000
     17 H          -4.2406   -0.2087   -0.0447 H       1  UNL1        0.0000
     18 H          -3.2753   -1.6317    0.3461 H       1  UNL1        0.0000
     19 C           1.7786    0.5231   -2.9829 C.3     1  UNL1        0.0000
     20 H           2.6546    1.0322   -3.4031 H       1  UNL1        0.0000
     21 C           1.9422    2.5288    0.6125 C.2     1  UNL1        0.0000
     22 C           1.9798    3.5704    2.7864 C.2     1  UNL1        0.0000
     23 H           2.4509    4.2187    3.5093 H       1  UNL1        0.0000
     24 C           1.6886   -0.9045   -3.5110 C.3     1  UNL1        0.0000
     25 H           0.8923   -1.4339   -2.9922 H       1  UNL1        0.0000
     26 H           2.6187   -1.4475   -3.3614 H       1  UNL1        0.0000
     27 H           1.4646   -0.9016   -4.5771 H       1  UNL1        0.0000
     28 C           3.3726   -0.5431   -0.7360 C.3     1  UNL1        0.0000
     29 H           3.0671   -1.5618   -1.0029 H       1  UNL1        0.0000
     30 C          -2.9812    1.0097    3.5834 C.2     1  UNL1        0.0000
     31 H          -3.5735    1.1071    4.4816 H       1  UNL1        0.0000
     32 C           0.2143    2.1069    2.0909 C.ar    1  UNL1        0.0000
     33 C           0.7703    2.9317    3.0888 C.ar    1  UNL1        0.0000
     34 C           2.5583    3.3527    1.5429 C.2     1  UNL1        0.0000
     35 H           3.4913    3.8351    1.2883 H       1  UNL1        0.0000
     36 C           4.6571   -0.2005   -1.4826 C.3     1  UNL1        0.0000
     37 H           5.0258    0.7853   -1.2078 H       1  UNL1        0.0000
     38 H           4.5132   -0.2268   -2.5599 H       1  UNL1        0.0000
     39 H           5.4302   -0.9241   -1.2268 H       1  UNL1        0.0000
     40 C           2.4966    2.2236   -0.7451 C.3     1  UNL1        0.0000
     41 H           3.5820    2.3258   -0.7825 H       1  UNL1        0.0000
     42 H           2.0629    2.9092   -1.4792 H       1  UNL1        0.0000
     43 C          -3.4493    0.3113    2.4920 C.2     1  UNL1        0.0000
     44 H          -4.4312   -0.1375    2.5117 H       1  UNL1        0.0000
     45 C          -1.1420    2.4425    4.5003 C.ar    1  UNL1        0.0000
     46 H          -1.6837    2.5681    5.4273 H       1  UNL1        0.0000
     47 C          -0.1548   -1.5586   -0.1282 C.3     1  UNL1        0.0000
     48 H           0.7888   -2.1161   -0.1523 H       1  UNL1        0.0000
     49 H          -0.6672   -1.8107   -1.0621 H       1  UNL1        0.0000
     50 H          -0.7464   -2.0033    0.6787 H       1  UNL1        0.0000
     51 C          -2.6642    0.1559    1.3408 C.2     1  UNL1        0.0000
     52 C           0.0548    3.0583    4.3138 C.ar    1  UNL1        0.0000
     53 H           0.4817    3.6752    5.0918 H       1  UNL1        0.0000
@<TRIPOS>BOND
     1    27    24    1
     2    11    10    1
     3    24    26    1
     4    24    25    1
     5    24    19    1
     6    20    19    1
     7    10    12    1
     8    10    19    1
     9    10    13    1
    10    19     2    1
    11    38    36    1
    12    36    39    1
    13    36    37    1
    14    36    28    1
    15    42    40    1
    16     2    40    1
    17     2    28    1
    18     2     1    1
    19    49    47    1
    20    29    28    1
    21    41    40    1
    22    40    21    1
    23    28     5    1
    24    16    15    1
    25    48    47    1
    26    47     1    1
    27    47    50    1
    28    17    15    1
    29     1     3    1
    30     1     4    1
    31    15    18    1
    32    15    51    1
    33    21     3    1
    34    21    34    2
    35     5     8    1
    36     5     6    1
    37     5     7    1
    38     3    32    1
    39     4    51    1
    40     4     9    1
    41    35    34    1
    42    51    43    2
    43    34    22    1
    44    32     9   ar
    45    32    33   ar
    46     9    14   ar
    47    43    44    1
    48    43    30    1
    49    22    33    2
    50    22    23    1
    51    33    52   ar
    52    14    30    2
    53    14    45   ar
    54    30    31    1
    55    52    45   ar
    56    52    53    1
    57    45    46    1
