@<TRIPOS>MOLECULE
CSD_code = GUVPUK | q = 0 | S = 0 | Stoichiometry = C38H57CoN2 | MND = 5
 98 102 0 0 0
SMALL
GASTEIGER

@<TRIPOS>ATOM
      1 CO         33.8626    1.6441   -0.9023 Co.oh   1  UNL1        0.0000
      2 N          33.4325   -0.1149   -0.6053 N.pl3   1  UNL1        0.0000
      3 N          33.1861    1.8876    0.8773 N.pl3   1  UNL1        0.0000
      4 C          32.7922   -1.6744   -2.3838 C.ar    1  UNL1        0.0000
      5 C          35.8090    1.6571   -3.0587 C.3     1  UNL1        0.0000
      6 H          36.0044    1.5980   -4.1343 H       1  UNL1        0.0000
      7 H          36.2797    0.7838   -2.6009 H       1  UNL1        0.0000
      8 C          34.3791    3.2010    2.5387 C.ar    1  UNL1        0.0000
      9 C          32.3171    4.0531    1.5604 C.ar    1  UNL1        0.0000
     10 C          32.6686    0.7833    1.3726 C.2     1  UNL1        0.0000
     11 C          31.1504    3.8893    0.6129 C.3     1  UNL1        0.0000
     12 H          31.4257    3.1251   -0.1246 H       1  UNL1        0.0000
     13 C          33.2880    3.0448    1.6684 C.ar    1  UNL1        0.0000
     14 C          35.6418    3.2727   -1.2081 C.3     1  UNL1        0.0000
     15 H          35.7361    2.3852   -0.5344 H       1  UNL1        0.0000
     16 H          36.0544    4.1340   -0.6849 H       1  UNL1        0.0000
     17 C          36.4224    2.9373   -2.4835 C.3     1  UNL1        0.0000
     18 H          36.2743    3.7566   -3.1982 H       1  UNL1        0.0000
     19 C          31.4357   -1.0230   -2.5405 C.3     1  UNL1        0.0000
     20 H          31.4099   -0.1298   -1.9059 H       1  UNL1        0.0000
     21 C          33.7335   -1.1913   -1.4626 C.ar    1  UNL1        0.0000
     22 C          34.3708   -3.3623   -3.0718 C.ar    1  UNL1        0.0000
     23 H          34.6113   -4.2186   -3.6848 H       1  UNL1        0.0000
     24 C          34.1872    3.5207   -1.5155 C.3     1  UNL1        0.0000
     25 H          33.7638    4.4648   -1.1912 H       1  UNL1        0.0000
     26 C          33.1316   -2.7615   -3.1760 C.ar    1  UNL1        0.0000
     27 H          32.4127   -3.1521   -3.8804 H       1  UNL1        0.0000
     28 C          35.0128   -1.7688   -1.3837 C.ar    1  UNL1        0.0000
     29 C          32.7835   -0.3462    0.5251 C.2     1  UNL1        0.0000
     30 C          37.9322    2.7830   -2.2245 C.3     1  UNL1        0.0000
     31 H          38.0725    2.0095   -1.4598 H       1  UNL1        0.0000
     32 C          30.3107   -1.9677   -2.1098 C.3     1  UNL1        0.0000
     33 H          29.3492   -1.4649   -2.1923 H       1  UNL1        0.0000
     34 H          30.4416   -2.2928   -1.0821 H       1  UNL1        0.0000
     35 H          30.2900   -2.8506   -2.7449 H       1  UNL1        0.0000
     36 C          32.2808    3.1583   -3.1695 C.3     1  UNL1        0.0000
     37 H          31.6378    2.2872   -3.2739 H       1  UNL1        0.0000
     38 H          32.4602    3.5631   -4.1674 H       1  UNL1        0.0000
     39 H          31.7643    3.9135   -2.5825 H       1  UNL1        0.0000
     40 C          31.1996   -0.5865   -3.9894 C.3     1  UNL1        0.0000
     41 H          30.2771   -0.0130   -4.0599 H       1  UNL1        0.0000
     42 H          31.1124   -1.4475   -4.6476 H       1  UNL1        0.0000
     43 H          32.0193    0.0314   -4.3461 H       1  UNL1        0.0000
     44 C          32.2604   -1.6869    0.9478 C.3     1  UNL1        0.0000
     45 H          32.5421   -2.4551    0.2323 H       1  UNL1        0.0000
     46 H          31.1736   -1.6572    1.0308 H       1  UNL1        0.0000
     47 H          32.6515   -1.9612    1.9277 H       1  UNL1        0.0000
     48 C          35.3074   -2.8570   -2.1894 C.ar    1  UNL1        0.0000
     49 H          36.2775   -3.3244   -2.1269 H       1  UNL1        0.0000
     50 C          33.6014    2.7956   -2.5514 C.3     1  UNL1        0.0000
     51 C          32.0474    0.6734    2.7326 C.3     1  UNL1        0.0000
     52 H          32.0420    1.6385    3.2334 H       1  UNL1        0.0000
     53 H          32.5988   -0.0389    3.3466 H       1  UNL1        0.0000
     54 H          31.0243    0.3067    2.6500 H       1  UNL1        0.0000
     55 C          30.8237    5.1829   -0.1355 C.3     1  UNL1        0.0000
     56 H          30.1146    4.9782   -0.9358 H       1  UNL1        0.0000
     57 H          31.7217    5.6169   -0.5697 H       1  UNL1        0.0000
     58 H          30.3728    5.9193    0.5255 H       1  UNL1        0.0000
     59 C          38.6666    2.3459   -3.4927 C.3     1  UNL1        0.0000
     60 H          38.3368    1.3662   -3.8258 H       1  UNL1        0.0000
     61 H          39.7379    2.2952   -3.3082 H       1  UNL1        0.0000
     62 H          38.4927    3.0606   -4.2947 H       1  UNL1        0.0000
     63 C          35.4527    2.1407    2.6542 C.3     1  UNL1        0.0000
     64 H          35.2532    1.3627    1.9092 H       1  UNL1        0.0000
     65 C          36.0362   -1.2021   -0.4248 C.3     1  UNL1        0.0000
     66 H          35.8014   -0.1349   -0.2970 H       1  UNL1        0.0000
     67 C          32.4363    5.1854    2.3510 C.ar    1  UNL1        0.0000
     68 H          31.6867    5.9595    2.2936 H       1  UNL1        0.0000
     69 C          34.3019    1.5984   -2.8564 C.3     1  UNL1        0.0000
     70 H          33.8293    0.9210   -3.5654 H       1  UNL1        0.0000
     71 C          29.9101    3.4052    1.3688 C.3     1  UNL1        0.0000
     72 H          29.0685    3.3093    0.6857 H       1  UNL1        0.0000
     73 H          29.6418    4.1136    2.1506 H       1  UNL1        0.0000
     74 H          30.0907    2.4380    1.8283 H       1  UNL1        0.0000
     75 C          34.4653    4.3548    3.3030 C.ar    1  UNL1        0.0000
     76 H          35.2953    4.4841    3.9813 H       1  UNL1        0.0000
     77 C          35.4327    1.4933    4.0411 C.3     1  UNL1        0.0000
     78 H          34.4532    1.0785    4.2625 H       1  UNL1        0.0000
     79 H          35.6720    2.2256    4.8090 H       1  UNL1        0.0000
     80 H          36.1670    0.6916    4.0914 H       1  UNL1        0.0000
     81 C          33.4986    5.3383    3.2219 C.ar    1  UNL1        0.0000
     82 H          33.5735    6.2243    3.8353 H       1  UNL1        0.0000
     83 C          38.5590    4.0835   -1.7191 C.3     1  UNL1        0.0000
     84 H          38.1792    4.3627   -0.7402 H       1  UNL1        0.0000
     85 H          38.3558    4.8967   -2.4131 H       1  UNL1        0.0000
     86 H          39.6378    3.9700   -1.6343 H       1  UNL1        0.0000
     87 C          37.4705   -1.3178   -0.9425 C.3     1  UNL1        0.0000
     88 H          38.1292   -0.6887   -0.3465 H       1  UNL1        0.0000
     89 H          37.5395   -1.0019   -1.9810 H       1  UNL1        0.0000
     90 H          37.8335   -2.3404   -0.8686 H       1  UNL1        0.0000
     91 C          36.8422    2.7194    2.3749 C.3     1  UNL1        0.0000
     92 H          37.5772    1.9180    2.3296 H       1  UNL1        0.0000
     93 H          37.1430    3.4096    3.1593 H       1  UNL1        0.0000
     94 H          36.8541    3.2529    1.4288 H       1  UNL1        0.0000
     95 C          35.9300   -1.8738    0.9469 C.3     1  UNL1        0.0000
     96 H          36.6997   -1.4887    1.6131 H       1  UNL1        0.0000
     97 H          36.0612   -2.9502    0.8523 H       1  UNL1        0.0000
     98 H          34.9608   -1.6809    1.3961 H       1  UNL1        0.0000
@<TRIPOS>BOND
     1    42    40    1
     2    43    40    1
     3    62    59    1
     4    38    36    1
     5     6     5    1
     6    41    40    1
     7    40    19    1
     8    27    26    1
     9    60    59    1
    10    23    22    1
    11    70    69    1
    12    59    61    1
    13    59    30    1
    14    37    36    1
    15    18    17    1
    16    26    22   ar
    17    26     4   ar
    18    36    39    1
    19    36    50    1
    20    22    48   ar
    21     5    69    1
    22     5     7    1
    23     5    17    1
    24    69    50    1
    25    69     1    1
    26    35    32    1
    27    50    24    1
    28    19     4    1
    29    19    32    1
    30    19    20    1
    31    17    30    1
    32    17    14    1
    33    85    83    1
    34     4    21   ar
    35    30    83    1
    36    30    31    1
    37    33    32    1
    38    48    49    1
    39    48    28   ar
    40    32    34    1
    41    89    87    1
    42    83    86    1
    43    83    84    1
    44    24    14    1
    45    24    25    1
    46    24     1    1
    47    21    28   ar
    48    21     2    1
    49    28    65    1
    50    14    16    1
    51    14    15    1
    52    87    90    1
    53    87    65    1
    54    87    88    1
    55    56    55    1
    56     1     2    1
    57     1     3    1
    58     2    29    1
    59    57    55    1
    60    65    66    1
    61    65    95    1
    62    55    58    1
    63    55    11    1
    64    12    11    1
    65    45    44    1
    66    29    44    1
    67    29    10    2
    68    11    71    1
    69    11     9    1
    70    72    71    1
    71    97    95    1
    72     3    10    1
    73     3    13    1
    74    95    98    1
    75    95    96    1
    76    44    46    1
    77    44    47    1
    78    71    74    1
    79    71    73    1
    80    10    51    1
    81    94    91    1
    82     9    13   ar
    83     9    67   ar
    84    13     8   ar
    85    64    63    1
    86    68    67    1
    87    92    91    1
    88    67    81   ar
    89    91    63    1
    90    91    93    1
    91     8    63    1
    92     8    75   ar
    93    54    51    1
    94    63    77    1
    95    51    52    1
    96    51    53    1
    97    81    75   ar
    98    81    82    1
    99    75    76    1
   100    77    80    1
   101    77    78    1
   102    77    79    1
