@<TRIPOS>MOLECULE
CSD_code = HIGPUI | q = 0 | S = 0 | Stoichiometry = C20H18ClCoN6 | MND = 6
 46 51 0 0 0
SMALL
GASTEIGER

@<TRIPOS>ATOM
      1 CO          6.2801    2.8370    2.1723 Co.oh   1  UNL1        0.0000
      2 CL          7.7804    4.2923    2.9558 Cl      1  UNL1        0.0000
      3 N           5.8299    2.2237    3.9373 N.ar    1  UNL1        0.0000
      4 N           5.0124    1.6203    1.3548 N.pl3   1  UNL1        0.0000
      5 N           6.6225    3.3392    0.3573 N.ar    1  UNL1        0.0000
      6 N           4.1848    0.7350    1.9131 N.2     1  UNL1        0.0000
      7 N           7.6728    1.4968    2.0405 N.pl3   1  UNL1        0.0000
      8 N           4.9160    4.2088    2.2768 N.pl3   1  UNL1        0.0000
      9 C           6.3157    2.6083    5.1209 C.ar    1  UNL1        0.0000
     10 C           5.7138    1.9034    6.1619 C.ar    1  UNL1        0.0000
     11 C           4.8083    1.0388    5.5784 C.ar    1  UNL1        0.0000
     12 C           4.8913    1.2492    4.1906 C.ar    1  UNL1        0.0000
     13 C           4.1436    0.5807    3.1995 C.2     1  UNL1        0.0000
     14 C           4.9887    1.7029    0.0473 C.3     1  UNL1        0.0000
     15 C           5.8553    2.6292   -0.5340 C.ar    1  UNL1        0.0000
     16 C           6.1616    3.0390   -1.8406 C.ar    1  UNL1        0.0000
     17 C           7.1345    4.0154   -1.7164 C.ar    1  UNL1        0.0000
     18 C           7.3871    4.1679   -0.3496 C.ar    1  UNL1        0.0000
     19 C           8.8758    1.8312    1.5676 C.3     1  UNL1        0.0000
     20 C           9.9210    0.9319    1.4566 C.2     1  UNL1        0.0000
     21 C           9.7315   -0.3814    1.8505 C.2     1  UNL1        0.0000
     22 C           8.4851   -0.7320    2.3415 C.2     1  UNL1        0.0000
     23 C           7.4931    0.2286    2.4168 C.2     1  UNL1        0.0000
     24 C           5.1929    5.4540    1.8823 C.3     1  UNL1        0.0000
     25 C           4.2775    6.4891    1.9489 C.2     1  UNL1        0.0000
     26 C           3.0090    6.2431    2.4453 C.2     1  UNL1        0.0000
     27 C           2.7173    4.9522    2.8529 C.2     1  UNL1        0.0000
     28 C           3.6901    3.9745    2.7506 C.2     1  UNL1        0.0000
     29 H           7.0710    3.3666    5.2021 H       1  UNL1        0.0000
     30 H           5.9255    2.0224    7.2070 H       1  UNL1        0.0000
     31 H           4.1577    0.3352    6.0625 H       1  UNL1        0.0000
     32 H           3.4334   -0.1669    3.5318 H       1  UNL1        0.0000
     33 H           4.3186    1.0688   -0.5208 H       1  UNL1        0.0000
     34 H           5.7207    2.6601   -2.7423 H       1  UNL1        0.0000
     35 H           7.6129    4.5598   -2.5076 H       1  UNL1        0.0000
     36 H           8.0839    4.8392    0.1199 H       1  UNL1        0.0000
     37 H           9.0214    2.8619    1.2834 H       1  UNL1        0.0000
     38 H          10.8689    1.2684    1.0680 H       1  UNL1        0.0000
     39 H          10.5273   -1.1073    1.7799 H       1  UNL1        0.0000
     40 H           8.2742   -1.7382    2.6675 H       1  UNL1        0.0000
     41 H           6.5240   -0.0471    2.8039 H       1  UNL1        0.0000
     42 H           6.1904    5.6418    1.5165 H       1  UNL1        0.0000
     43 H           4.5672    7.4732    1.6168 H       1  UNL1        0.0000
     44 H           2.2727    7.0293    2.5143 H       1  UNL1        0.0000
     45 H           1.7479    4.6957    3.2499 H       1  UNL1        0.0000
     46 H           3.4607    2.9704    3.0734 H       1  UNL1        0.0000
@<TRIPOS>BOND
     1    34    16    1
     2    35    17    1
     3    16    17   ar
     4    16    15   ar
     5    17    18   ar
     6    15    14    1
     7    15     5   ar
     8    33    14    1
     9    18    36    1
    10    18     5   ar
    11    14     4    1
    12     5     1    1
    13    38    20    1
    14    37    19    1
    15     4     6    1
    16     4     1    1
    17    20    19    1
    18    20    21    2
    19    42    24    1
    20    19     7    1
    21    43    25    1
    22    39    21    1
    23    21    22    1
    24    24    25    1
    25    24     8    1
    26     6    13    2
    27    25    26    2
    28     7     1    1
    29     7    23    1
    30     1     8    1
    31     1     2    1
    32     1     3    1
    33     8    28    1
    34    22    23    2
    35    22    40    1
    36    23    41    1
    37    26    44    1
    38    26    27    1
    39    28    27    2
    40    28    46    1
    41    27    45    1
    42    13    32    1
    43    13    12    1
    44     3    12   ar
    45     3     9   ar
    46    12    11   ar
    47     9    29    1
    48     9    10   ar
    49    11    31    1
    50    11    10   ar
    51    10    30    1
