@<TRIPOS>MOLECULE
CSD_code = HUGKEB | q = 0 | S = 0 | Stoichiometry = C22H34CoN3 | MND = 4
 60 64 0 0 0
SMALL
GASTEIGER

@<TRIPOS>ATOM
      1 CO          6.7548    1.4725    8.7045 Co.oh   1  UNL1        0.0000
      2 N           7.9846    1.2881    7.3344 N.3     1  UNL1        0.0000
      3 C           5.6069   -0.8497    9.2718 C.3     1  UNL1        0.0000
      4 N           6.3990   -0.2139    8.3521 N.pl3   1  UNL1        0.0000
      5 C           7.4595   -2.2785    7.7905 C.2     1  UNL1        0.0000
      6 H           8.2167   -2.8314    7.2562 H       1  UNL1        0.0000
      7 N           5.2457    1.3560    9.7692 N.3     1  UNL1        0.0000
      8 C           9.9072    2.8386    7.1490 C.3     1  UNL1        0.0000
      9 H           9.7385    3.1622    8.1753 H       1  UNL1        0.0000
     10 H          10.6201    2.0122    7.1730 H       1  UNL1        0.0000
     11 C           4.5774    3.6189    9.2365 C.3     1  UNL1        0.0000
     12 H           4.2533    3.2788    8.2493 H       1  UNL1        0.0000
     13 H           5.6353    3.8925    9.1755 H       1  UNL1        0.0000
     14 C           7.3878   -0.8939    7.6912 C.2     1  UNL1        0.0000
     15 C           8.0100    2.1550   10.0968 C.3     1  UNL1        0.0000
     16 H           8.0627    3.2480   10.1251 H       1  UNL1        0.0000
     17 H           9.0266    1.7907    9.9369 H       1  UNL1        0.0000
     18 H           7.7221    1.8235   11.0964 H       1  UNL1        0.0000
     19 C           4.8756    2.9517   11.6269 C.3     1  UNL1        0.0000
     20 H           4.7855    2.1397   12.3509 H       1  UNL1        0.0000
     21 H           5.9245    3.2416   11.5812 H       1  UNL1        0.0000
     22 C           8.1455    4.7096    5.7384 C.3     1  UNL1        0.0000
     23 H           8.2829    4.4085    4.6966 H       1  UNL1        0.0000
     24 H           7.4336    5.5376    5.7539 H       1  UNL1        0.0000
     25 C           4.8387    0.1172    9.9885 C.3     1  UNL1        0.0000
     26 C           4.4418    2.4676   10.2367 C.3     1  UNL1        0.0000
     27 H           3.3836    2.1730   10.2836 H       1  UNL1        0.0000
     28 C           8.2172    0.0329    6.9900 C.3     1  UNL1        0.0000
     29 C           4.1706    5.2884   11.0647 C.3     1  UNL1        0.0000
     30 H           5.2110    5.6196   11.0402 H       1  UNL1        0.0000
     31 H           3.5557    6.1353   11.3767 H       1  UNL1        0.0000
     32 C           8.5718    2.3639    6.5604 C.3     1  UNL1        0.0000
     33 H           8.7433    2.0330    5.5262 H       1  UNL1        0.0000
     34 C          10.4694    3.9968    6.3314 C.3     1  UNL1        0.0000
     35 H          10.6602    3.6660    5.3070 H       1  UNL1        0.0000
     36 H          11.4204    4.3202    6.7597 H       1  UNL1        0.0000
     37 C           7.5859    3.5352    6.5344 C.3     1  UNL1        0.0000
     38 H           7.3963    3.8422    7.5677 H       1  UNL1        0.0000
     39 H           6.6414    3.2011    6.0969 H       1  UNL1        0.0000
     40 C           9.4843    5.1613    6.3129 C.3     1  UNL1        0.0000
     41 H           9.3372    5.5241    7.3324 H       1  UNL1        0.0000
     42 H           9.8874    5.9839    5.7184 H       1  UNL1        0.0000
     43 C           3.7540    4.8265    9.6719 C.3     1  UNL1        0.0000
     44 H           3.8835    5.6393    8.9542 H       1  UNL1        0.0000
     45 H           2.6944    4.5577    9.6824 H       1  UNL1        0.0000
     46 C           3.6504   -0.2605   10.8211 C.3     1  UNL1        0.0000
     47 H           3.6586    0.2490   11.7826 H       1  UNL1        0.0000
     48 H           3.6453   -1.3316   10.9972 H       1  UNL1        0.0000
     49 H           2.7234   -0.0009   10.3060 H       1  UNL1        0.0000
     50 C           9.1768   -0.4001    5.9225 C.3     1  UNL1        0.0000
     51 H           8.7740   -0.1784    4.9322 H       1  UNL1        0.0000
     52 H           9.3409   -1.4716    5.9834 H       1  UNL1        0.0000
     53 H          10.1366    0.1035    6.0201 H       1  UNL1        0.0000
     54 C           6.5631   -2.9476    8.6137 C.2     1  UNL1        0.0000
     55 H           6.6039   -4.0237    8.6900 H       1  UNL1        0.0000
     56 C           4.0314    4.1442   12.0638 C.3     1  UNL1        0.0000
     57 H           2.9815    3.8469   12.1318 H       1  UNL1        0.0000
     58 H           4.3489    4.4746   13.0550 H       1  UNL1        0.0000
     59 C           5.6590   -2.2336    9.3896 C.2     1  UNL1        0.0000
     60 H           5.0254   -2.7516   10.0929 H       1  UNL1        0.0000
@<TRIPOS>BOND
     1    23    22    1
     2    51    50    1
     3    35    34    1
     4    33    32    1
     5    42    40    1
     6    22    24    1
     7    22    40    1
     8    22    37    1
     9    50    52    1
    10    50    53    1
    11    50    28    1
    12    39    37    1
    13    40    34    1
    14    40    41    1
    15    34    36    1
    16    34     8    1
    17    37    32    1
    18    37    38    1
    19    32     8    1
    20    32     2    1
    21    28     2    1
    22    28    14    1
    23     8    10    1
    24     8     9    1
    25     6     5    1
    26     2     1    1
    27    14     5    2
    28    14     4    1
    29     5    54    1
    30    12    11    1
    31     4     1    1
    32     4     3    1
    33    54    55    1
    34    54    59    2
    35     1     7    1
    36     1    15    1
    37    44    43    1
    38    13    11    1
    39    11    43    1
    40    11    26    1
    41     3    59    1
    42     3    25    1
    43    59    60    1
    44    43    45    1
    45    43    29    1
    46     7    25    1
    47     7    26    1
    48    17    15    1
    49    25    46    1
    50    15    16    1
    51    15    18    1
    52    26    27    1
    53    26    19    1
    54    49    46    1
    55    46    48    1
    56    46    47    1
    57    30    29    1
    58    29    31    1
    59    29    56    1
    60    21    19    1
    61    19    56    1
    62    19    20    1
    63    56    57    1
    64    56    58    1
