@<TRIPOS>MOLECULE
CSD_code = HUHYEP | q = 1 | S = 0 | Stoichiometry = C28H30CoN4O2(1+) | MND = 6
 65 72 0 0 0
SMALL
GASTEIGER

@<TRIPOS>ATOM
      1 CO         11.5663    4.3214    4.4510 Co.oh   1  UNL1        0.0000
      2 O          11.5577    6.1693    4.9187 O.3     1  UNL1        0.0000
      3 N           9.5508    4.3081    4.2213 N.4     1  UNL1        0.0000
      4 H           9.4514    3.7021    3.4072 H       1  UNL1        0.0000
      5 C           9.2120    6.6134    4.9826 C.ar    1  UNL1        0.0000
      6 N          11.3140    3.9429    6.3789 N.pl3   1  UNL1        0.0000
      7 C          12.1409    4.1943    8.6133 C.2     1  UNL1        0.0000
      8 H          12.7689    4.7444    9.2946 H       1  UNL1        0.0000
      9 C          10.5302    6.8057    5.4396 C.ar    1  UNL1        0.0000
     10 C          10.7391    7.7375    6.4690 C.ar    1  UNL1        0.0000
     11 H          11.7494    7.9150    6.8079 H       1  UNL1        0.0000
     12 C           8.3909    8.2264    6.5699 C.ar    1  UNL1        0.0000
     13 H           7.5671    8.7685    7.0055 H       1  UNL1        0.0000
     14 C           8.1641    7.3114    5.5572 C.ar    1  UNL1        0.0000
     15 H           7.1581    7.1448    5.1975 H       1  UNL1        0.0000
     16 C           9.6861    8.4413    7.0130 C.ar    1  UNL1        0.0000
     17 H           9.8755    9.1589    7.7969 H       1  UNL1        0.0000
     18 C          10.5401    2.5170    8.1243 C.2     1  UNL1        0.0000
     19 H           9.8914    1.7082    8.4208 H       1  UNL1        0.0000
     20 C           8.9938    5.6303    3.8676 C.3     1  UNL1        0.0000
     21 H           7.9216    5.5394    3.6549 H       1  UNL1        0.0000
     22 H           9.4971    5.9848    2.9617 H       1  UNL1        0.0000
     23 C          10.4964    2.9738    6.8098 C.3     1  UNL1        0.0000
     24 C           8.7326    3.6838    5.2695 C.3     1  UNL1        0.0000
     25 H           7.7691    3.3755    4.8469 H       1  UNL1        0.0000
     26 H           8.5403    4.4302    6.0469 H       1  UNL1        0.0000
     27 C           9.4411    2.4741    5.8773 C.3     1  UNL1        0.0000
     28 H           8.7292    1.8552    6.4212 H       1  UNL1        0.0000
     29 H           9.8973    1.8789    5.0836 H       1  UNL1        0.0000
     30 C          12.0710    4.5673    7.2866 C.2     1  UNL1        0.0000
     31 H          12.6090    5.4428    6.9531 H       1  UNL1        0.0000
     32 C          11.3926    3.1064    9.0372 C.2     1  UNL1        0.0000
     33 H          11.4443    2.7563   10.0559 H       1  UNL1        0.0000
     34 O          11.5750    2.4735    3.9834 O.3     1  UNL1        0.0000
     35 N          13.5819    4.3347    4.6808 N.4     1  UNL1        0.0000
     36 H          13.6812    4.9407    5.4950 H       1  UNL1        0.0000
     37 C          13.9208    2.0295    3.9194 C.ar    1  UNL1        0.0000
     38 N          11.8189    4.6998    2.5230 N.pl3   1  UNL1        0.0000
     39 C          10.9918    4.4485    0.2887 C.2     1  UNL1        0.0000
     40 H          10.3640    3.8984   -0.3927 H       1  UNL1        0.0000
     41 C          12.6026    1.8371    3.4625 C.ar    1  UNL1        0.0000
     42 C          12.3937    0.9053    2.4331 C.ar    1  UNL1        0.0000
     43 H          11.3834    0.7279    2.0941 H       1  UNL1        0.0000
     44 C          14.7419    0.4164    2.3322 C.ar    1  UNL1        0.0000
     45 H          15.5657   -0.1257    1.8966 H       1  UNL1        0.0000
     46 C          14.9687    1.3315    3.3448 C.ar    1  UNL1        0.0000
     47 H          15.9746    1.4980    3.7045 H       1  UNL1        0.0000
     48 C          13.4467    0.2015    1.8891 C.ar    1  UNL1        0.0000
     49 H          13.2573   -0.5161    1.1051 H       1  UNL1        0.0000
     50 C          12.5927    6.1258    0.7777 C.2     1  UNL1        0.0000
     51 H          13.2414    6.9346    0.4813 H       1  UNL1        0.0000
     52 C          14.1390    3.0125    5.0345 C.3     1  UNL1        0.0000
     53 H          15.2112    3.1034    5.2472 H       1  UNL1        0.0000
     54 H          13.6357    2.6580    5.9404 H       1  UNL1        0.0000
     55 C          12.6364    5.6689    2.0922 C.3     1  UNL1        0.0000
     56 C          14.4001    4.9590    3.6326 C.3     1  UNL1        0.0000
     57 H          15.3636    5.2673    4.0552 H       1  UNL1        0.0000
     58 H          14.5924    4.2126    2.8551 H       1  UNL1        0.0000
     59 C          13.6917    6.1687    3.0248 C.3     1  UNL1        0.0000
     60 H          14.4036    6.7876    2.4809 H       1  UNL1        0.0000
     61 H          13.2355    6.7639    3.8185 H       1  UNL1        0.0000
     62 C          11.0618    4.0755    1.6153 C.2     1  UNL1        0.0000
     63 H          10.5240    3.1999    1.9487 H       1  UNL1        0.0000
     64 C          11.7401    5.5365   -0.1352 C.2     1  UNL1        0.0000
     65 H          11.6885    5.8865   -1.1539 H       1  UNL1        0.0000
@<TRIPOS>BOND
     1    65    64    1
     2    40    39    1
     3    64    39    1
     4    64    50    2
     5    39    62    2
     6    51    50    1
     7    50    55    1
     8    49    48    1
     9    62    63    1
    10    62    38    1
    11    48    44   ar
    12    48    42   ar
    13    45    44    1
    14    55    38    1
    15    55    59    1
    16    43    42    1
    17    44    46   ar
    18    42    41   ar
    19    60    59    1
    20    38     1    1
    21    58    56    1
    22    22    20    1
    23    59    56    1
    24    59    61    1
    25    46    47    1
    26    46    37   ar
    27     4     3    1
    28    41    37   ar
    29    41    34    1
    30    56    57    1
    31    56    35    1
    32    21    20    1
    33    20     3    1
    34    20     5    1
    35    37    52    1
    36    34     1    1
    37     3     1    1
    38     3    24    1
    39     1    35    1
    40     1     2    1
    41     1     6    1
    42    35    52    1
    43    35    36    1
    44    25    24    1
    45     2     9    1
    46     5     9   ar
    47     5    14   ar
    48    52    53    1
    49    52    54    1
    50    29    27    1
    51    15    14    1
    52    24    27    1
    53    24    26    1
    54     9    10   ar
    55    14    12   ar
    56    27    28    1
    57    27    23    1
    58     6    23    1
    59     6    30    1
    60    10    11    1
    61    10    16   ar
    62    12    13    1
    63    12    16   ar
    64    23    18    1
    65    31    30    1
    66    16    17    1
    67    30     7    2
    68    18    19    1
    69    18    32    2
    70     7    32    1
    71     7     8    1
    72    32    33    1
