@<TRIPOS>MOLECULE
CSD_code = HUNLAF | q = -1 | S = 0 | Stoichiometry = C48H58CoP2S4Si4(1-) | MND = 6
 117 126 0 0 0
SMALL
GASTEIGER

@<TRIPOS>ATOM
      1 CO         13.2684    5.6810   35.2006 Co.oh   1  UNL1        0.0000
      2 P          13.5057    7.7947   34.8928 P.3     1  UNL1        0.0000
      3 S          13.1473    3.3802   35.6003 S.3     1  UNL1        0.0000
      4 S          14.1636    6.2536   37.2814 S.3     1  UNL1        0.0000
      5 SI         14.6277    0.5143   35.4037 Si      1  UNL1        0.0000
      6 P          12.3641    5.0499   33.3563 P.3     1  UNL1        0.0000
      7 SI         18.3518    5.5899   33.2664 Si      1  UNL1        0.0000
      8 SI          8.0801    5.8649   36.8173 Si      1  UNL1        0.0000
      9 SI         13.6389    7.1798   40.3311 Si      1  UNL1        0.0000
     10 S          11.1533    6.0528   36.0300 S.3     1  UNL1        0.0000
     11 S          15.3412    5.3762   34.2497 S.3     1  UNL1        0.0000
     12 C          13.3974    2.6867   34.0376 C.ar    1  UNL1        0.0000
     13 C          13.0011    3.4245   32.9098 C.ar    1  UNL1        0.0000
     14 C          13.9626    1.4153   33.8789 C.ar    1  UNL1        0.0000
     15 C          17.3338    7.1276   33.6984 C.ar    1  UNL1        0.0000
     16 C          10.6012    4.8196   33.6677 C.ar    1  UNL1        0.0000
     17 C          16.0024    6.9626   34.1189 C.ar    1  UNL1        0.0000
     18 C          10.1007    5.3129   34.8821 C.ar    1  UNL1        0.0000
     19 C          15.7766    9.3636   34.3951 C.ar    1  UNL1        0.0000
     20 H          15.1654   10.2128   34.6742 H       1  UNL1        0.0000
     21 C          14.0834    0.9226   32.5869 C.ar    1  UNL1        0.0000
     22 H          14.5218   -0.0549   32.4435 H       1  UNL1        0.0000
     23 C          17.8447    8.4140   33.6493 C.ar    1  UNL1        0.0000
     24 H          18.8683    8.5557   33.3328 H       1  UNL1        0.0000
     25 C          15.2271    8.0890   34.4339 C.ar    1  UNL1        0.0000
     26 C           8.7292    5.1971   35.1684 C.ar    1  UNL1        0.0000
     27 C           7.9225    4.5627   34.2382 C.ar    1  UNL1        0.0000
     28 H           6.8671    4.4617   34.4480 H       1  UNL1        0.0000
     29 C          17.0912    9.5267   34.0039 C.ar    1  UNL1        0.0000
     30 H          17.5312   10.5141   33.9724 H       1  UNL1        0.0000
     31 C          13.1453    2.9134   31.6317 C.ar    1  UNL1        0.0000
     32 H          12.8489    3.5017   30.7726 H       1  UNL1        0.0000
     33 C          13.6777    1.6448   31.4743 C.ar    1  UNL1        0.0000
     34 H          13.7917    1.2266   30.4832 H       1  UNL1        0.0000
     35 C           8.4241    4.0411   33.0518 C.ar    1  UNL1        0.0000
     36 H           7.7660    3.5355   32.3583 H       1  UNL1        0.0000
     37 C          13.2557    8.6552   36.4562 C.ar    1  UNL1        0.0000
     38 C          13.3777    8.3427   38.8618 C.ar    1  UNL1        0.0000
     39 C          13.5559    7.8453   37.5642 C.ar    1  UNL1        0.0000
     40 C           9.7690    4.1708   32.7653 C.ar    1  UNL1        0.0000
     41 H          10.1884    3.7734   31.8493 H       1  UNL1        0.0000
     42 C          12.7974    9.9513   36.6182 C.ar    1  UNL1        0.0000
     43 H          12.5563   10.5557   35.7529 H       1  UNL1        0.0000
     44 C          16.0245    1.5332   36.2060 C.3     1  UNL1        0.0000
     45 H          16.8633    1.6561   35.5262 H       1  UNL1        0.0000
     46 H          16.3935    1.0660   37.1148 H       1  UNL1        0.0000
     47 H          15.6637    2.5229   36.4646 H       1  UNL1        0.0000
     48 C           6.1786    5.6313   36.8432 C.3     1  UNL1        0.0000
     49 H           5.9009    4.5848   36.7739 H       1  UNL1        0.0000
     50 H           5.6927    6.1603   36.0297 H       1  UNL1        0.0000
     51 H           5.7689    6.0147   37.7718 H       1  UNL1        0.0000
     52 C          12.9300    9.6496   38.9939 C.ar    1  UNL1        0.0000
     53 H          12.7834   10.0495   39.9874 H       1  UNL1        0.0000
     54 C          15.3849   -1.1518   34.8350 C.3     1  UNL1        0.0000
     55 H          16.2019   -1.0062   34.1362 H       1  UNL1        0.0000
     56 H          14.6471   -1.7895   34.3588 H       1  UNL1        0.0000
     57 H          15.7793   -1.6928   35.6889 H       1  UNL1        0.0000
     58 C          12.5328    8.7617   33.7049 C.ar    1  UNL1        0.0000
     59 C          11.3463    6.6236   31.2460 C.ar    1  UNL1        0.0000
     60 H          10.3787    6.5406   31.7217 H       1  UNL1        0.0000
     61 C          12.4495    5.9919   31.8079 C.ar    1  UNL1        0.0000
     62 C          13.0759    9.3075   32.5477 C.ar    1  UNL1        0.0000
     63 H          14.1300    9.1878   32.3390 H       1  UNL1        0.0000
     64 C          13.2390    0.0875   36.6422 C.3     1  UNL1        0.0000
     65 H          13.6270   -0.4615   37.4955 H       1  UNL1        0.0000
     66 H          12.4648   -0.5188   36.1798 H       1  UNL1        0.0000
     67 H          12.7742    0.9956   37.0089 H       1  UNL1        0.0000
     68 C          12.6491   10.4544   37.8995 C.ar    1  UNL1        0.0000
     69 H          12.2990   11.4676   38.0447 H       1  UNL1        0.0000
     70 C          13.7021    6.1334   31.2131 C.ar    1  UNL1        0.0000
     71 H          14.5600    5.6613   31.6741 H       1  UNL1        0.0000
     72 C          11.1664    8.8868   33.9504 C.ar    1  UNL1        0.0000
     73 H          10.7482    8.4344   34.8402 H       1  UNL1        0.0000
     74 C          11.4895    7.3528   30.0796 C.ar    1  UNL1        0.0000
     75 H          10.6267    7.8334   29.6394 H       1  UNL1        0.0000
     76 C          12.2668   10.0043   31.6686 C.ar    1  UNL1        0.0000
     77 H          12.6955   10.4372   30.7753 H       1  UNL1        0.0000
     78 C          12.7314    7.4728   29.4790 C.ar    1  UNL1        0.0000
     79 H          12.8373    8.0434   28.5665 H       1  UNL1        0.0000
     80 C          10.9134   10.1439   31.9256 C.ar    1  UNL1        0.0000
     81 H          10.2856   10.6897   31.2346 H       1  UNL1        0.0000
     82 C          13.2521    8.1470   41.9398 C.3     1  UNL1        0.0000
     83 H          13.3847    7.5030   42.8029 H       1  UNL1        0.0000
     84 H          12.2292    8.5083   41.9576 H       1  UNL1        0.0000
     85 H          13.9104    9.0004   42.0668 H       1  UNL1        0.0000
     86 C          13.8398    6.8698   30.0533 C.ar    1  UNL1        0.0000
     87 H          14.8129    6.9749   29.5938 H       1  UNL1        0.0000
     88 C          10.3626    9.5756   33.0639 C.ar    1  UNL1        0.0000
     89 H           9.3035    9.6714   33.2594 H       1  UNL1        0.0000
     90 C          17.5738    4.5852   31.8383 C.3     1  UNL1        0.0000
     91 H          17.2880    5.2257   31.0082 H       1  UNL1        0.0000
     92 H          16.6853    4.0637   32.1768 H       1  UNL1        0.0000
     93 H          18.2703    3.8431   31.4583 H       1  UNL1        0.0000
     94 C          12.4154    5.7214   40.2339 C.3     1  UNL1        0.0000
     95 H          12.5486    5.1842   39.3012 H       1  UNL1        0.0000
     96 H          11.3858    6.0673   40.2700 H       1  UNL1        0.0000
     97 H          12.5623    5.0169   41.0478 H       1  UNL1        0.0000
     98 C           8.7949    4.8846   38.2874 C.3     1  UNL1        0.0000
     99 H           8.4996    3.8397   38.2480 H       1  UNL1        0.0000
    100 H           8.4591    5.2915   39.2371 H       1  UNL1        0.0000
    101 H           9.8783    4.9216   38.2723 H       1  UNL1        0.0000
    102 C          18.6478    4.5021   34.8035 C.3     1  UNL1        0.0000
    103 H          19.1845    3.5928   34.5481 H       1  UNL1        0.0000
    104 H          17.7018    4.2176   35.2500 H       1  UNL1        0.0000
    105 H          19.2242    5.0299   35.5583 H       1  UNL1        0.0000
    106 C           8.3915    7.7412   37.0080 C.3     1  UNL1        0.0000
    107 H           7.8151    8.1521   37.8322 H       1  UNL1        0.0000
    108 H           8.1165    8.2851   36.1083 H       1  UNL1        0.0000
    109 H           9.4400    7.9356   37.2055 H       1  UNL1        0.0000
    110 C          20.0657    6.1723   32.6385 C.3     1  UNL1        0.0000
    111 H          20.6719    5.3156   32.3634 H       1  UNL1        0.0000
    112 H          20.6080    6.7220   33.4006 H       1  UNL1        0.0000
    113 H          19.9837    6.8079   31.7629 H       1  UNL1        0.0000
    114 C          15.4510    6.5954   40.4688 C.3     1  UNL1        0.0000
    115 H          16.1363    7.4353   40.5450 H       1  UNL1        0.0000
    116 H          15.7257    6.0223   39.5907 H       1  UNL1        0.0000
    117 H          15.5969    5.9660   41.3421 H       1  UNL1        0.0000
@<TRIPOS>BOND
     1    79    78    1
     2    78    86   ar
     3    78    74   ar
     4    87    86    1
     5    75    74    1
     6    86    70   ar
     7    74    59   ar
     8    34    33    1
     9    32    31    1
    10    77    76    1
    11    91    90    1
    12    70    71    1
    13    70    61   ar
    14    81    80    1
    15    59    60    1
    16    59    61   ar
    17    93    90    1
    18    33    31   ar
    19    33    21   ar
    20    31    13   ar
    21    76    80   ar
    22    76    62   ar
    23   113   110    1
    24    61     6    1
    25    90    92    1
    26    90     7    1
    27    41    40    1
    28    80    88   ar
    29    63    62    1
    30    36    35    1
    31   111   110    1
    32    22    21    1
    33    62    58   ar
    34    21    14   ar
    35   110     7    1
    36   110   112    1
    37    40    35   ar
    38    40    16   ar
    39    13     6    1
    40    13    12   ar
    41    35    27   ar
    42    88    89    1
    43    88    72   ar
    44     7    15    1
    45     7   102    1
    46    24    23    1
    47     6    16    1
    48     6     1    1
    49    23    15   ar
    50    23    29   ar
    51    16    18   ar
    52    15    17   ar
    53    58    72   ar
    54    58     2    1
    55    14    12   ar
    56    14     5    1
    57    72    73    1
    58    30    29    1
    59    29    19   ar
    60    12     3    1
    61    17    11    1
    62    17    25   ar
    63    55    54    1
    64    27    28    1
    65    27    26   ar
    66    11     1    1
    67    56    54    1
    68    19    25   ar
    69    19    20    1
    70    25     2    1
    71   103   102    1
    72   102   104    1
    73   102   105    1
    74    54     5    1
    75    54    57    1
    76    18    26   ar
    77    18    10    1
    78     2     1    1
    79     2    37    1
    80    26     8    1
    81     1     3    1
    82     1    10    1
    83     1     4    1
    84     5    44    1
    85     5    64    1
    86    45    44    1
    87    43    42    1
    88    50    48    1
    89   108   106    1
    90    66    64    1
    91    44    47    1
    92    44    46    1
    93    37    42   ar
    94    37    39   ar
    95    42    68   ar
    96    64    67    1
    97    64    65    1
    98    49    48    1
    99     8    48    1
   100     8   106    1
   101     8    98    1
   102    48    51    1
   103   106   109    1
   104   106   107    1
   105     4    39    1
   106    39    38   ar
   107    68    69    1
   108    68    52   ar
   109    99    98    1
   110   101    98    1
   111    98   100    1
   112    38    52   ar
   113    38     9    1
   114    52    53    1
   115    95    94    1
   116   116   114    1
   117    94    96    1
   118    94     9    1
   119    94    97    1
   120     9   114    1
   121     9    82    1
   122   114   115    1
   123   114   117    1
   124    82    84    1
   125    82    85    1
   126    82    83    1
