@<TRIPOS>MOLECULE
CSD_code = IDAREK | q = 0 | S = 0 | Stoichiometry = C8H15CoN6 | MND = 6
 30 31 0 0 0
SMALL
GASTEIGER

@<TRIPOS>ATOM
      1 CO          0.6787    3.5019    2.1807 Co.oh   1  UNL1        0.0000
      2 N          -0.4616    3.8500    3.8177 N.4     1  UNL1        0.0000
      3 H          -0.2197    4.7222    4.2904 H       1  UNL1        0.0000
      4 H          -1.4363    3.9361    3.5203 H       1  UNL1        0.0000
      5 N           0.7489    1.5185    2.9235 N.4     1  UNL1        0.0000
      6 H           1.6379    1.4738    3.4278 H       1  UNL1        0.0000
      7 N           1.8328    3.0029    0.5838 N.4     1  UNL1        0.0000
      8 H           1.6773    3.7239   -0.1250 H       1  UNL1        0.0000
      9 H           2.8129    3.0896    0.8661 H       1  UNL1        0.0000
     10 N          -1.8442    2.6618    0.7429 N.1     1  UNL1        0.0000
     11 N           0.5302    6.3349    1.2562 N.1     1  UNL1        0.0000
     12 N           3.1890    3.8218    3.8311 N.1     1  UNL1        0.0000
     13 C          -0.3251    2.7149    4.7393 C.3     1  UNL1        0.0000
     14 H           0.6299    2.8108    5.2656 H       1  UNL1        0.0000
     15 H          -1.1342    2.6924    5.4790 H       1  UNL1        0.0000
     16 C          -0.3242    1.4290    3.9145 C.3     1  UNL1        0.0000
     17 H          -1.2749    1.3386    3.3790 H       1  UNL1        0.0000
     18 H          -0.2067    0.5535    4.5682 H       1  UNL1        0.0000
     19 C           0.7264    0.4131    1.9684 C.3     1  UNL1        0.0000
     20 H          -0.2379    0.4288    1.4522 H       1  UNL1        0.0000
     21 H           0.8206   -0.5492    2.4940 H       1  UNL1        0.0000
     22 C           1.8515    0.5402    0.9427 C.3     1  UNL1        0.0000
     23 H           2.8068    0.6764    1.4582 H       1  UNL1        0.0000
     24 H           1.9064   -0.3908    0.3769 H       1  UNL1        0.0000
     25 C           1.6348    1.6879   -0.0430 C.3     1  UNL1        0.0000
     26 H           0.6144    1.6444   -0.4332 H       1  UNL1        0.0000
     27 H           2.3322    1.5702   -0.8829 H       1  UNL1        0.0000
     28 C          -0.8797    3.0765    1.2177 C.1     1  UNL1        0.0000
     29 C           0.5809    5.2471    1.6189 C.1     1  UNL1        0.0000
     30 C           2.2356    3.8491    3.1842 C.1     1  UNL1        0.0000
@<TRIPOS>BOND
     1    27    25    1
     2    26    25    1
     3     8     7    1
     4    25     7    1
     5    25    22    1
     6    24    22    1
     7     7     9    1
     8     7     1    1
     9    10    28    3
    10    22    23    1
    11    22    19    1
    12    28     1    1
    13    11    29    3
    14    20    19    1
    15    29     1    1
    16    19    21    1
    17    19     5    1
    18     1     5    1
    19     1    30    1
    20     1     2    1
    21     5     6    1
    22     5    16    1
    23    30    12    3
    24    17    16    1
    25     4     2    1
    26     2     3    1
    27     2    13    1
    28    16    18    1
    29    16    13    1
    30    13    14    1
    31    13    15    1
