@<TRIPOS>MOLECULE
CSD_code = IDARAG | q = 0 | S = 0 | Stoichiometry = C8H15CoN6 | MND = 6
 30 31 0 0 0
SMALL
GASTEIGER

@<TRIPOS>ATOM
      1 CO          5.5167    1.6469    1.7386 Co.oh   1  UNL1        0.0000
      2 N           7.4622    1.4360    2.5740 N.4     1  UNL1        0.0000
      3 H           7.7976    0.4747    2.6229 H       1  UNL1        0.0000
      4 H           8.1306    1.9461    1.9985 H       1  UNL1        0.0000
      5 N           4.9885    1.7762    3.7969 N.4     1  UNL1        0.0000
      6 H           4.8044    2.7784    3.8678 H       1  UNL1        0.0000
      7 N           5.0670   -0.4337    1.8977 N.4     1  UNL1        0.0000
      8 H           5.0243   -0.7412    0.9256 H       1  UNL1        0.0000
      9 H           5.8201   -0.9679    2.3323 H       1  UNL1        0.0000
     10 N           2.7167    2.0928    0.8624 N.1     1  UNL1        0.0000
     11 N           6.5791    1.1094   -0.9768 N.1     1  UNL1        0.0000
     12 N           6.0762    4.5590    1.7551 N.1     1  UNL1        0.0000
     13 C           7.4139    2.0201    3.9186 C.3     1  UNL1        0.0000
     14 H           8.3079    1.7814    4.5096 H       1  UNL1        0.0000
     15 H           7.3443    3.1062    3.8150 H       1  UNL1        0.0000
     16 C           6.1651    1.4951    4.6238 C.3     1  UNL1        0.0000
     17 H           6.2605    0.4128    4.7509 H       1  UNL1        0.0000
     18 H           6.0763    1.9445    5.6225 H       1  UNL1        0.0000
     19 C           3.7767    1.0945    4.2646 C.3     1  UNL1        0.0000
     20 H           3.6335    1.2765    5.3407 H       1  UNL1        0.0000
     21 H           2.9299    1.5260    3.7258 H       1  UNL1        0.0000
     22 C           3.7802   -0.4166    4.0230 C.3     1  UNL1        0.0000
     23 H           2.8679   -0.8197    4.4650 H       1  UNL1        0.0000
     24 H           4.6216   -0.8893    4.5374 H       1  UNL1        0.0000
     25 C           3.7997   -0.8012    2.5455 C.3     1  UNL1        0.0000
     26 H           3.6266   -1.8836    2.4626 H       1  UNL1        0.0000
     27 H           2.9922   -0.2828    2.0240 H       1  UNL1        0.0000
     28 C           3.8291    1.9743    1.1227 C.1     1  UNL1        0.0000
     29 C           6.1131    1.4173    0.0267 C.1     1  UNL1        0.0000
     30 C           5.8151    3.4472    1.6320 C.1     1  UNL1        0.0000
@<TRIPOS>BOND
     1    11    29    3
     2    29     1    1
     3    10    28    3
     4     8     7    1
     5    28     1    1
     6    30     1    1
     7    30    12    3
     8     1     7    1
     9     1     2    1
    10     1     5    1
    11     7     9    1
    12     7    25    1
    13     4     2    1
    14    27    25    1
    15    26    25    1
    16    25    22    1
    17     2     3    1
    18     2    13    1
    19    21    19    1
    20     5     6    1
    21     5    19    1
    22     5    16    1
    23    15    13    1
    24    13    14    1
    25    13    16    1
    26    22    19    1
    27    22    23    1
    28    22    24    1
    29    19    20    1
    30    16    17    1
    31    16    18    1
