@<TRIPOS>MOLECULE
CSD_code = IKIFEP | q = 0 | S = 0 | Stoichiometry = C16H27CoN8O3S | MND = 6
 56 58 0 0 0
SMALL
GASTEIGER

@<TRIPOS>ATOM
      1 CO          3.7953    1.6705    9.4086 Co.oh   1  UNL1        0.0000
      2 S           3.2973    1.8076    6.5365 S.3     1  UNL1        0.0000
      3 O           4.1583    1.0993    7.5658 O.3     1  UNL1        0.0000
      4 O           2.2068    2.2544    8.6407 O.3     1  UNL1        0.0000
      5 O           0.7047    3.4378    6.8875 O.3     1  UNL1        0.0000
      6 N           3.3852    2.2739   11.0730 N.3     1  UNL1        0.0000
      7 N           2.3713   -0.6878    9.1604 N.2     1  UNL1        0.0000
      8 N           3.0101    0.0191    9.8375 N.2     1  UNL1        0.0000
      9 N           5.6696    1.0270   10.2253 N.4     1  UNL1        0.0000
     10 N           4.3258    4.1178    8.1858 N.2     1  UNL1        0.0000
     11 C           1.5451    3.6966   10.4248 C.ar    1  UNL1        0.0000
     12 N           4.5788    3.3523    9.0325 N.2     1  UNL1        0.0000
     13 C           1.5077    3.2511    9.0812 C.ar    1  UNL1        0.0000
     14 N           4.1773    4.9267    7.4007 N.2     1  UNL1        0.0000
     15 C           0.6424    3.9224    8.1658 C.ar    1  UNL1        0.0000
     16 C          -0.1540    4.9563    8.5958 C.ar    1  UNL1        0.0000
     17 H          -0.8022    5.4746    7.9071 H       1  UNL1        0.0000
     18 C           4.2628    1.7726   12.0998 C.3     1  UNL1        0.0000
     19 H           4.2329    2.4014   12.9984 H       1  UNL1        0.0000
     20 H           3.9398    0.7607   12.3676 H       1  UNL1        0.0000
     21 N           1.7572   -1.4674    8.6065 N.2     1  UNL1        0.0000
     22 C           2.4562    3.1187   11.3575 C.3     1  UNL1        0.0000
     23 H           2.3570    3.4544   12.3914 H       1  UNL1        0.0000
     24 C           0.6974    4.7455   10.8311 C.ar    1  UNL1        0.0000
     25 H           0.7282    5.0686   11.8612 H       1  UNL1        0.0000
     26 C           4.2983    1.4217    5.0386 C.3     1  UNL1        0.0000
     27 H           5.2335    1.9627    5.1302 H       1  UNL1        0.0000
     28 H           3.7634    1.7641    4.1611 H       1  UNL1        0.0000
     29 H           4.4897    0.3569    4.9871 H       1  UNL1        0.0000
     30 C           5.7678   -0.4259   10.4716 C.3     1  UNL1        0.0000
     31 H           4.8741   -0.7242   11.0199 H       1  UNL1        0.0000
     32 H           6.6420   -0.6296   11.1051 H       1  UNL1        0.0000
     33 C          -0.1323    5.3609    9.9357 C.ar    1  UNL1        0.0000
     34 H          -0.7714    6.1720   10.2482 H       1  UNL1        0.0000
     35 C           5.6741    1.7386   11.5134 C.3     1  UNL1        0.0000
     36 H           6.3650    1.2737   12.2279 H       1  UNL1        0.0000
     37 H           5.9854    2.7687   11.3284 H       1  UNL1        0.0000
     38 C           1.9701    0.6223    6.1503 C.3     1  UNL1        0.0000
     39 H           1.1751    0.7852    6.8680 H       1  UNL1        0.0000
     40 H           2.3503   -0.3885    6.2481 H       1  UNL1        0.0000
     41 H           1.6095    0.8157    5.1472 H       1  UNL1        0.0000
     42 C           0.0308    4.1522    5.8823 C.3     1  UNL1        0.0000
     43 H           0.2781    3.6522    4.9472 H       1  UNL1        0.0000
     44 H           0.3695    5.1917    5.8379 H       1  UNL1        0.0000
     45 H          -1.0547    4.1270    6.0276 H       1  UNL1        0.0000
     46 C           6.7856    1.4889    9.3781 C.3     1  UNL1        0.0000
     47 H           6.6749    1.0130    8.4044 H       1  UNL1        0.0000
     48 H           6.6541    2.5619    9.2312 H       1  UNL1        0.0000
     49 C           5.8462   -1.2619    9.2010 C.3     1  UNL1        0.0000
     50 H           5.6088   -2.2960    9.4373 H       1  UNL1        0.0000
     51 H           6.8363   -1.2339    8.7528 H       1  UNL1        0.0000
     52 H           5.1212   -0.8998    8.4783 H       1  UNL1        0.0000
     53 C           8.1891    1.2315    9.9253 C.3     1  UNL1        0.0000
     54 H           8.9095    1.6756    9.2427 H       1  UNL1        0.0000
     55 H           8.4135    0.1709   10.0002 H       1  UNL1        0.0000
     56 H           8.3281    1.6894   10.9014 H       1  UNL1        0.0000
@<TRIPOS>BOND
     1    28    26    1
     2    43    42    1
     3    29    26    1
     4    26    27    1
     5    26     2    1
     6    41    38    1
     7    44    42    1
     8    42    45    1
     9    42     5    1
    10    38    40    1
    11    38     2    1
    12    38    39    1
    13     2     3    1
    14     5    15    1
    15    14    10    2
    16     3     1    1
    17    17    16    1
    18    15    16   ar
    19    15    13   ar
    20    10    12    2
    21    47    46    1
    22    52    49    1
    23    16    33   ar
    24    21     7    2
    25     4    13    1
    26     4     1    1
    27    51    49    1
    28    12     1    1
    29    13    11   ar
    30     7     8    2
    31    49    50    1
    32    49    30    1
    33    48    46    1
    34    54    53    1
    35    46    53    1
    36    46     9    1
    37     1     8    1
    38     1     9    1
    39     1     6    1
    40    53    55    1
    41    53    56    1
    42    33    34    1
    43    33    24   ar
    44     9    30    1
    45     9    35    1
    46    11    24   ar
    47    11    22    1
    48    30    31    1
    49    30    32    1
    50    24    25    1
    51     6    22    1
    52     6    18    1
    53    37    35    1
    54    22    23    1
    55    35    18    1
    56    35    36    1
    57    18    20    1
    58    18    19    1
