@<TRIPOS>MOLECULE
CSD_code = IPIKEX | q = 0 | S = 0 | Stoichiometry = C18H18CoN7O4 | MND = 6
 48 53 0 0 0
SMALL
GASTEIGER

@<TRIPOS>ATOM
      1 CO          2.1075   12.4008    8.1570 Co.oh   1  UNL1        0.0000
      2 N           3.6195   11.3831    7.5471 N.pl3   1  UNL1        0.0000
      3 C           3.6558   10.5848    6.5037 C.3     1  UNL1        0.0000
      4 N           4.7911    9.8643    6.4982 N.pl3   1  UNL1        0.0000
      5 C           5.5124   10.2258    7.5990 C.2     1  UNL1        0.0000
      6 C           4.7724   11.1708    8.2418 C.2     1  UNL1        0.0000
      7 N           0.5980   13.3197    8.8655 N.pl3   1  UNL1        0.0000
      8 C          -0.5004   12.7553    9.3170 C.3     1  UNL1        0.0000
      9 N          -1.2772   13.6596    9.9349 N.pl3   1  UNL1        0.0000
     10 C          -0.6359   14.8617    9.8802 C.2     1  UNL1        0.0000
     11 C           0.5263   14.6379    9.2076 C.2     1  UNL1        0.0000
     12 N           2.2935   13.6942    6.6782 N.pl3   1  UNL1        0.0000
     13 C           1.5594   13.7059    5.5915 C.3     1  UNL1        0.0000
     14 N           1.9343   14.7096    4.7762 N.pl3   1  UNL1        0.0000
     15 C           2.9630   15.3698    5.3858 C.2     1  UNL1        0.0000
     16 C           3.1753   14.7253    6.5669 C.2     1  UNL1        0.0000
     17 O           3.2149   13.4666    9.2016 O.3     1  UNL1        0.0000
     18 O           1.4667   10.4123   11.5657 O.2     1  UNL1        0.0000
     19 O           0.9665   11.3190    7.0707 O.3     1  UNL1        0.0000
     20 O           0.0549    9.3098    6.9547 O.2     1  UNL1        0.0000
     21 N           1.8766   11.1085    9.4618 N.am    1  UNL1        0.0000
     22 C           3.1471   13.4951   10.5102 C.ar    1  UNL1        0.0000
     23 C           3.7412   14.5957   11.1605 C.ar    1  UNL1        0.0000
     24 C           3.7258   14.7245   12.5304 C.ar    1  UNL1        0.0000
     25 C           3.1118   13.7600   13.3165 C.ar    1  UNL1        0.0000
     26 C           2.5343   12.6689   12.7017 C.ar    1  UNL1        0.0000
     27 C           2.5395   12.5102   11.3193 C.ar    1  UNL1        0.0000
     28 C           1.9126   11.2663   10.7919 C.2     1  UNL1        0.0000
     29 C           1.2614    9.8991    8.9535 C.3     1  UNL1        0.0000
     30 C           0.6952   10.1586    7.5519 C.2     1  UNL1        0.0000
     31 H           2.8853   10.4963    5.7640 H       1  UNL1        0.0000
     32 H           5.0461    9.1613    5.8233 H       1  UNL1        0.0000
     33 H           6.4621    9.7924    7.8333 H       1  UNL1        0.0000
     34 H           4.9833   11.7048    9.1452 H       1  UNL1        0.0000
     35 H          -0.7649   11.7234    9.2037 H       1  UNL1        0.0000
     36 H          -2.1551   13.4714   10.3916 H       1  UNL1        0.0000
     37 H          -1.0408   15.7524   10.3130 H       1  UNL1        0.0000
     38 H           1.3131   15.3236    8.9680 H       1  UNL1        0.0000
     39 H           0.7765   13.0050    5.3826 H       1  UNL1        0.0000
     40 H           1.5303   14.9359    3.8818 H       1  UNL1        0.0000
     41 H           3.4450   16.2164    4.9431 H       1  UNL1        0.0000
     42 H           3.8841   14.9204    7.3452 H       1  UNL1        0.0000
     43 H           4.2189   15.3430   10.5417 H       1  UNL1        0.0000
     44 H           4.1922   15.5854   12.9905 H       1  UNL1        0.0000
     45 H           3.0928   13.8592   14.3917 H       1  UNL1        0.0000
     46 H           2.0609   11.8889   13.2812 H       1  UNL1        0.0000
     47 H           0.4722    9.5565    9.6346 H       1  UNL1        0.0000
     48 H           1.9966    9.0843    8.8833 H       1  UNL1        0.0000
@<TRIPOS>BOND
     1    40    14    1
     2    14    15    1
     3    14    13    1
     4    41    15    1
     5    39    13    1
     6    15    16    2
     7    13    12    1
     8    31     3    1
     9    32     4    1
    10     4     3    1
    11     4     5    1
    12     3     2    1
    13    16    12    1
    14    16    42    1
    15    12     1    1
    16    20    30    2
    17    19    30    1
    18    19     1    1
    19     2     1    1
    20     2     6    1
    21    30    29    1
    22     5    33    1
    23     5     6    2
    24     1     7    1
    25     1    17    1
    26     1    21    1
    27     6    34    1
    28     7    11    1
    29     7     8    1
    30    48    29    1
    31    29    21    1
    32    29    47    1
    33    38    11    1
    34    17    22    1
    35    35     8    1
    36    11    10    2
    37     8     9    1
    38    21    28   am
    39    10     9    1
    40    10    37    1
    41     9    36    1
    42    22    23   ar
    43    22    27   ar
    44    43    23    1
    45    28    27    1
    46    28    18    2
    47    23    24   ar
    48    27    26   ar
    49    24    44    1
    50    24    25   ar
    51    26    46    1
    52    26    25   ar
    53    25    45    1
