@<TRIPOS>MOLECULE
CSD_code = JACYIY | q = 0 | S = 0 | Stoichiometry = C30H25CoN4O8 | MND = 6
 68 75 0 0 0
SMALL
GASTEIGER

@<TRIPOS>ATOM
      1 CO          0.4446    0.8208    9.6506 Co.oh   1  UNL1        0.0000
      2 N          -0.4998    1.8189   10.9390 N.3     1  UNL1        0.0000
      3 N          -0.4674    1.1763   12.1336 N.3     1  UNL1        0.0000
      4 H          -0.8722    1.6184   12.9533 H       1  UNL1        0.0000
      5 N           1.3017   -0.2452    8.4392 N.pl3   1  UNL1        0.0000
      6 N           0.4949   -1.1477    7.8539 N.2     1  UNL1        0.0000
      7 O           0.7230   -0.3944   11.0873 O.3     1  UNL1        0.0000
      8 O           0.1430    2.0202    8.3123 O.3     1  UNL1        0.0000
      9 O           0.5928   -3.1545   16.7705 O.3     1  UNL1        0.0000
     10 H           1.1499   -3.9283   16.6178 H       1  UNL1        0.0000
     11 O           0.0527    3.3587    6.1292 O.3     1  UNL1        0.0000
     12 O          -1.0822   -0.1634    9.1559 O.2     1  UNL1        0.0000
     13 O           1.9504    1.7588   10.1684 O.3     1  UNL1        0.0000
     14 O          -4.6580   -4.5325    6.2944 O.3     1  UNL1        0.0000
     15 H          -4.2821   -5.1511    5.6563 H       1  UNL1        0.0000
     16 O           3.7062    3.4157   11.0960 O.3     1  UNL1        0.0000
     17 C           0.1980   -0.0006   12.1524 C.3     1  UNL1        0.0000
     18 C           0.2762   -0.7866   13.3820 C.ar    1  UNL1        0.0000
     19 C          -0.3795   -0.4478   14.5701 C.ar    1  UNL1        0.0000
     20 H          -0.9962    0.4354   14.6361 H       1  UNL1        0.0000
     21 C          -0.2636   -1.2455   15.6865 C.ar    1  UNL1        0.0000
     22 H          -0.7670   -0.9941   16.6062 H       1  UNL1        0.0000
     23 C           0.5107   -2.4054   15.6488 C.ar    1  UNL1        0.0000
     24 C           1.1651   -2.7520   14.4686 C.ar    1  UNL1        0.0000
     25 H           1.7650   -3.6512   14.4314 H       1  UNL1        0.0000
     26 C           1.0472   -1.9530   13.3535 C.ar    1  UNL1        0.0000
     27 H           1.5479   -2.2117   12.4339 H       1  UNL1        0.0000
     28 C          -1.0454    2.9829   10.8091 C.3     1  UNL1        0.0000
     29 H          -1.5100    3.4542   11.6779 H       1  UNL1        0.0000
     30 C          -1.0713    3.6833    9.5814 C.ar    1  UNL1        0.0000
     31 C          -0.7397   -1.0389    8.2762 C.2     1  UNL1        0.0000
     32 C          -1.7522   -1.9555    7.7388 C.ar    1  UNL1        0.0000
     33 C          -1.4080   -2.9315    6.8067 C.ar    1  UNL1        0.0000
     34 H          -0.3834   -2.9962    6.4793 H       1  UNL1        0.0000
     35 C          -2.3664   -3.7949    6.3172 C.ar    1  UNL1        0.0000
     36 H          -2.0975   -4.5535    5.5929 H       1  UNL1        0.0000
     37 C          -3.6857   -3.6973    6.7509 C.ar    1  UNL1        0.0000
     38 C          -4.0358   -2.7214    7.6803 C.ar    1  UNL1        0.0000
     39 H          -5.0631   -2.6591    8.0031 H       1  UNL1        0.0000
     40 C          -3.0757   -1.8608    8.1667 C.ar    1  UNL1        0.0000
     41 H          -3.3337   -1.0987    8.8858 H       1  UNL1        0.0000
     42 C           2.5431   -0.1735    8.0833 C.3     1  UNL1        0.0000
     43 H           2.8807   -0.8680    7.3182 H       1  UNL1        0.0000
     44 C           3.4872    0.7475    8.6173 C.ar    1  UNL1        0.0000
     45 C          -0.4659    3.1443    8.4070 C.ar    1  UNL1        0.0000
     46 C          -0.5439    3.9400    7.2055 C.ar    1  UNL1        0.0000
     47 C          -1.1689    5.1597    7.2047 C.ar    1  UNL1        0.0000
     48 H          -1.2214    5.7521    6.3047 H       1  UNL1        0.0000
     49 C          -1.7531    5.6668    8.3768 C.ar    1  UNL1        0.0000
     50 H          -2.2372    6.6308    8.3463 H       1  UNL1        0.0000
     51 C          -1.7052    4.9472    9.5320 C.ar    1  UNL1        0.0000
     52 H          -2.1528    5.3332   10.4364 H       1  UNL1        0.0000
     53 C           0.0431    4.0491    4.9074 C.3     1  UNL1        0.0000
     54 H          -0.9778    4.2204    4.5478 H       1  UNL1        0.0000
     55 H           0.5692    3.4071    4.2027 H       1  UNL1        0.0000
     56 H           0.5658    5.0092    4.9816 H       1  UNL1        0.0000
     57 C           3.1240    1.6706    9.6315 C.ar    1  UNL1        0.0000
     58 C           4.1355    2.5638   10.1107 C.ar    1  UNL1        0.0000
     59 C           5.4088    2.5283    9.5966 C.ar    1  UNL1        0.0000
     60 H           6.1681    3.2062    9.9545 H       1  UNL1        0.0000
     61 C           5.7450    1.6108    8.5943 C.ar    1  UNL1        0.0000
     62 H           6.7519    1.6029    8.2055 H       1  UNL1        0.0000
     63 C           4.8053    0.7404    8.1187 C.ar    1  UNL1        0.0000
     64 H           5.0591    0.0311    7.3447 H       1  UNL1        0.0000
     65 C           4.6170    4.3591   11.5928 C.3     1  UNL1        0.0000
     66 H           5.4772    3.8789   12.0737 H       1  UNL1        0.0000
     67 H           4.0694    4.9382   12.3355 H       1  UNL1        0.0000
     68 H           4.9747    5.0313   10.8049 H       1  UNL1        0.0000
@<TRIPOS>BOND
     1    55    53    1
     2    54    53    1
     3    53    56    1
     4    53    11    1
     5    36    35    1
     6    15    14    1
     7    11    46    1
     8    14    37    1
     9    48    47    1
    10    35    37   ar
    11    35    33   ar
    12    34    33    1
    13    37    38   ar
    14    33    32   ar
    15    47    46   ar
    16    47    49   ar
    17    46    45   ar
    18    43    42    1
    19    64    63    1
    20    38    39    1
    21    38    40   ar
    22    32    40   ar
    23    32    31    1
    24     6    31    2
    25     6     5    1
    26    42     5    1
    27    42    44    1
    28    63    61   ar
    29    63    44   ar
    30    40    41    1
    31    62    61    1
    32    31    12    1
    33     8    45    1
    34     8     1    1
    35    50    49    1
    36    49    51   ar
    37    45    30   ar
    38     5     1    1
    39    61    59   ar
    40    44    57   ar
    41    12     1    1
    42    51    30   ar
    43    51    52    1
    44    30    28    1
    45    59    60    1
    46    59    58   ar
    47    57    58   ar
    48    57    13    1
    49     1    13    1
    50     1     2    1
    51     1     7    1
    52    58    16    1
    53    68    65    1
    54    28     2    1
    55    28    29    1
    56     2     3    1
    57     7    17    1
    58    16    65    1
    59    65    66    1
    60    65    67    1
    61     3    17    1
    62     3     4    1
    63    17    18    1
    64    27    26    1
    65    26    18   ar
    66    26    24   ar
    67    18    19   ar
    68    25    24    1
    69    24    23   ar
    70    19    20    1
    71    19    21   ar
    72    23    21   ar
    73    23     9    1
    74    21    22    1
    75    10     9    1
