@<TRIPOS>MOLECULE
CSD_code = JEHCEH | q = 0 | S = 0 | Stoichiometry = C64H55CoN5OP | MND = 5
 127 139 0 0 0
SMALL
GASTEIGER

@<TRIPOS>ATOM
      1 CO         10.4623    4.0911   15.5039 Co.oh   1  UNL1        0.0000
      2 P           8.1279    3.8048   15.6924 P.3     1  UNL1        0.0000
      3 N          10.5048    2.3968   13.2516 N.pl3   1  UNL1        0.0000
      4 C           7.1135    5.3225   15.5849 C.ar    1  UNL1        0.0000
      5 O          11.5031   12.4628   15.7223 O.3     1  UNL1        0.0000
      6 N          10.5688    4.4099   12.4115 N.pl3   1  UNL1        0.0000
      7 C           6.0326    5.6073   16.4127 C.ar    1  UNL1        0.0000
      8 H           5.7158    4.8935   17.1594 H       1  UNL1        0.0000
      9 C           5.7511    7.7388   15.3373 C.ar    1  UNL1        0.0000
     10 H           5.2167    8.6731   15.2405 H       1  UNL1        0.0000
     11 N          11.1659    4.5612   18.4588 N.pl3   1  UNL1        0.0000
     12 C           5.3578    6.8086   16.2852 C.ar    1  UNL1        0.0000
     13 H           4.5167    7.0194   16.9305 H       1  UNL1        0.0000
     14 N          11.0401    2.4996   17.7508 N.pl3   1  UNL1        0.0000
     15 C           6.8400    7.4704   14.5228 C.ar    1  UNL1        0.0000
     16 H           7.1644    8.1972   13.7906 H       1  UNL1        0.0000
     17 N          10.5625    5.8217   15.4968 N.3     1  UNL1        0.0000
     18 C           7.5227    6.2764   14.6546 C.ar    1  UNL1        0.0000
     19 H           8.3954    6.0797   14.0484 H       1  UNL1        0.0000
     20 C           7.2307    2.8887   17.0075 C.ar    1  UNL1        0.0000
     21 C           7.7984    2.7739   18.2692 C.ar    1  UNL1        0.0000
     22 H           8.7508    3.2371   18.4627 H       1  UNL1        0.0000
     23 C           7.1566    2.0773   19.2777 C.ar    1  UNL1        0.0000
     24 H           7.6205    1.9916   20.2503 H       1  UNL1        0.0000
     25 C           5.9273    1.4906   19.0351 C.ar    1  UNL1        0.0000
     26 H           5.4225    0.9419   19.8169 H       1  UNL1        0.0000
     27 C           5.3431    1.6119   17.7836 C.ar    1  UNL1        0.0000
     28 H           4.3784    1.1632   17.5930 H       1  UNL1        0.0000
     29 C           5.9873    2.3035   16.7755 C.ar    1  UNL1        0.0000
     30 H           5.5231    2.3934   15.8033 H       1  UNL1        0.0000
     31 C           7.5087    2.8474   14.2660 C.ar    1  UNL1        0.0000
     32 C           6.9664    3.4289   13.1265 C.ar    1  UNL1        0.0000
     33 H           6.7613    4.4894   13.1132 H       1  UNL1        0.0000
     34 C           6.6696    2.6538   12.0193 C.ar    1  UNL1        0.0000
     35 H           6.2539    3.1181   11.1359 H       1  UNL1        0.0000
     36 C           6.9039    1.2893   12.0381 C.ar    1  UNL1        0.0000
     37 H           6.6846    0.6902   11.1667 H       1  UNL1        0.0000
     38 C           7.4077    0.6964   13.1847 C.ar    1  UNL1        0.0000
     39 H           7.5720   -0.3711   13.2161 H       1  UNL1        0.0000
     40 C          10.5708    3.7257   13.5884 C.3     1  UNL1        0.0000
     41 C           7.7103    1.4672   14.2898 C.ar    1  UNL1        0.0000
     42 H           8.1001    1.0027   15.1851 H       1  UNL1        0.0000
     43 C          10.4194    2.2375   11.8926 C.ar    1  UNL1        0.0000
     44 C          10.2895    1.1374   11.0582 C.ar    1  UNL1        0.0000
     45 H          10.2141    0.1363   11.4480 H       1  UNL1        0.0000
     46 C          10.2508    1.3648    9.6944 C.ar    1  UNL1        0.0000
     47 H          10.1474    0.5247    9.0239 H       1  UNL1        0.0000
     48 C          10.3514    2.6471    9.1634 C.ar    1  UNL1        0.0000
     49 H          10.3344    2.7786    8.0918 H       1  UNL1        0.0000
     50 C          10.4703    3.7550    9.9823 C.ar    1  UNL1        0.0000
     51 H          10.5557    4.7515    9.5774 H       1  UNL1        0.0000
     52 C          10.4798    3.5364   11.3498 C.ar    1  UNL1        0.0000
     53 C          10.7474    5.8083   12.2691 C.ar    1  UNL1        0.0000
     54 C           9.7363    6.6033   11.7323 C.ar    1  UNL1        0.0000
     55 C           8.4424    6.0339   11.2294 C.3     1  UNL1        0.0000
     56 H           7.5997    6.6072   11.6129 H       1  UNL1        0.0000
     57 H           8.3214    4.9939   11.5147 H       1  UNL1        0.0000
     58 H           8.4113    6.0926   10.1407 H       1  UNL1        0.0000
     59 C           9.9459    7.9742   11.6329 C.ar    1  UNL1        0.0000
     60 H           9.1539    8.5903   11.2299 H       1  UNL1        0.0000
     61 C          11.1375    8.5589   12.0213 C.ar    1  UNL1        0.0000
     62 C          11.3540   10.0373   11.9162 C.3     1  UNL1        0.0000
     63 H          12.2354   10.2511   11.3131 H       1  UNL1        0.0000
     64 H          11.5175   10.4613   12.9065 H       1  UNL1        0.0000
     65 H          10.4952   10.5268   11.4636 H       1  UNL1        0.0000
     66 C          12.1493    7.7376   12.5030 C.ar    1  UNL1        0.0000
     67 H          13.0978    8.1791   12.7724 H       1  UNL1        0.0000
     68 C          11.9764    6.3714   12.6367 C.ar    1  UNL1        0.0000
     69 C          13.0900    5.5077   13.1398 C.3     1  UNL1        0.0000
     70 H          13.9998    6.0893   13.2632 H       1  UNL1        0.0000
     71 H          13.2865    4.6906   12.4459 H       1  UNL1        0.0000
     72 H          12.8175    5.0659   14.1009 H       1  UNL1        0.0000
     73 C          10.6183    1.5136   14.3309 C.ar    1  UNL1        0.0000
     74 C          10.6770    2.2395   15.5185 C.ar    1  UNL1        0.0000
     75 C          10.8992    1.5656   16.7178 C.ar    1  UNL1        0.0000
     76 C          11.0124    0.1861   16.7504 C.ar    1  UNL1        0.0000
     77 H          11.1837   -0.3556   17.6678 H       1  UNL1        0.0000
     78 C          10.9210   -0.5105   15.5518 C.ar    1  UNL1        0.0000
     79 H          11.0119   -1.5872   15.5654 H       1  UNL1        0.0000
     80 C          10.7465    0.1340   14.3343 C.ar    1  UNL1        0.0000
     81 H          10.7217   -0.4467   13.4254 H       1  UNL1        0.0000
     82 C          10.9962    3.8110   17.3394 C.3     1  UNL1        0.0000
     83 C          11.2117    2.4188   19.1094 C.ar    1  UNL1        0.0000
     84 C          11.2819    1.3699   20.0143 C.ar    1  UNL1        0.0000
     85 H          11.2004    0.3428   19.6995 H       1  UNL1        0.0000
     86 C          11.4531    1.6839   21.3513 C.ar    1  UNL1        0.0000
     87 H          11.5103    0.8845   22.0748 H       1  UNL1        0.0000
     88 C          11.5520    3.0014   21.7892 C.ar    1  UNL1        0.0000
     89 H          11.6865    3.1999   22.8419 H       1  UNL1        0.0000
     90 C          11.4758    4.0595   20.9013 C.ar    1  UNL1        0.0000
     91 H          11.5452    5.0860   21.2288 H       1  UNL1        0.0000
     92 C          11.3006    3.7513   19.5629 C.ar    1  UNL1        0.0000
     93 C          11.3054    5.9713   18.5335 C.ar    1  UNL1        0.0000
     94 C          10.1951    6.7727   18.7889 C.ar    1  UNL1        0.0000
     95 C          13.7446    5.6400   18.0795 C.3     1  UNL1        0.0000
     96 H          14.6463    6.2280   17.9311 H       1  UNL1        0.0000
     97 H          13.5379    5.0706   17.1730 H       1  UNL1        0.0000
     98 H          13.9221    4.9288   18.8868 H       1  UNL1        0.0000
     99 C          12.5791    6.5242   18.4002 C.ar    1  UNL1        0.0000
    100 C          12.7294    7.8918   18.5640 C.ar    1  UNL1        0.0000
    101 H          13.7128    8.3302   18.4711 H       1  UNL1        0.0000
    102 C          11.8406   10.1789   19.0707 C.3     1  UNL1        0.0000
    103 H          10.9038   10.7164   18.9471 H       1  UNL1        0.0000
    104 H          12.5710   10.5802   18.3720 H       1  UNL1        0.0000
    105 H          12.2067   10.3584   20.0822 H       1  UNL1        0.0000
    106 C          11.6451    8.7101   18.8501 C.ar    1  UNL1        0.0000
    107 C          10.3859    8.1378   18.9437 C.ar    1  UNL1        0.0000
    108 H           9.5300    8.7665   19.1446 H       1  UNL1        0.0000
    109 C           8.8300    6.1666   18.8787 C.3     1  UNL1        0.0000
    110 H           8.0745    6.9336   19.0285 H       1  UNL1        0.0000
    111 H           8.7728    5.4557   19.7031 H       1  UNL1        0.0000
    112 H           8.6027    5.6340   17.9537 H       1  UNL1        0.0000
    113 C          10.6822    6.9779   15.5510 C.3     1  UNL1        0.0000
    114 C          10.8552    8.3611   15.6028 C.ar    1  UNL1        0.0000
    115 C           9.7602    9.2172   15.7472 C.ar    1  UNL1        0.0000
    116 H           8.7689    8.7965   15.8272 H       1  UNL1        0.0000
    117 C           9.9364   10.5854   15.7920 C.ar    1  UNL1        0.0000
    118 H           9.0709   11.2198   15.9050 H       1  UNL1        0.0000
    119 C          11.2137   11.1296   15.6930 C.ar    1  UNL1        0.0000
    120 C          12.3129   10.2748   15.5549 C.ar    1  UNL1        0.0000
    121 H          13.2947   10.7174   15.4828 H       1  UNL1        0.0000
    122 C          10.4455   13.3764   15.8718 C.3     1  UNL1        0.0000
    123 H          10.9051   14.3635   15.8707 H       1  UNL1        0.0000
    124 H           9.9149   13.2268   16.8180 H       1  UNL1        0.0000
    125 H           9.7339   13.3088   15.0422 H       1  UNL1        0.0000
    126 C          12.1420    8.9134   15.5147 C.ar    1  UNL1        0.0000
    127 H          12.9914    8.2554   15.4201 H       1  UNL1        0.0000
@<TRIPOS>BOND
     1    49    48    1
     2    47    46    1
     3    48    46   ar
     4    48    50   ar
     5    51    50    1
     6    46    44   ar
     7    50    52   ar
     8    58    55    1
     9    44    45    1
    10    44    43   ar
    11    35    34    1
    12    37    36    1
    13    55    57    1
    14    55    56    1
    15    55    54    1
    16    60    59    1
    17    63    62    1
    18    52    43   ar
    19    52     6    1
    20    65    62    1
    21    59    54   ar
    22    59    61   ar
    23    54    53   ar
    24    43     3    1
    25    62    61    1
    26    62    64    1
    27    34    36   ar
    28    34    32   ar
    29    61    66   ar
    30    36    38   ar
    31    53     6    1
    32    53    68   ar
    33     6    40    1
    34    71    69    1
    35    66    68   ar
    36    66    67    1
    37    68    69    1
    38    33    32    1
    39    32    31   ar
    40    69    70    1
    41    69    72    1
    42    38    39    1
    43    38    41   ar
    44     3    40    1
    45     3    73    1
    46    81    80    1
    47    40     1    1
    48    16    15    1
    49    19    18    1
    50    31    41   ar
    51    31     2    1
    52    41    42    1
    53    73    80   ar
    54    73    74   ar
    55    80    78   ar
    56    15    18   ar
    57    15     9   ar
    58    18     4   ar
    59   125   122    1
    60    10     9    1
    61     9    12   ar
    62   127   126    1
    63   121   120    1
    64    17     1    1
    65    17   113    1
    66     1    74    1
    67     1     2    1
    68     1    82    1
    69   126   120   ar
    70   126   114   ar
    71    74    75   ar
    72   113   114    1
    73    78    79    1
    74    78    76   ar
    75   120   119   ar
    76     4     2    1
    77     4     7   ar
    78   114   115   ar
    79     2    20    1
    80   119     5    1
    81   119   117   ar
    82     5   122    1
    83   115   117   ar
    84   115   116    1
    85   117   118    1
    86    30    29    1
    87   123   122    1
    88   122   124    1
    89    12     7   ar
    90    12    13    1
    91     7     8    1
    92    75    76   ar
    93    75    14    1
    94    76    77    1
    95    29    20   ar
    96    29    27   ar
    97    20    21   ar
    98    97    95    1
    99    82    14    1
   100    82    11    1
   101    28    27    1
   102    14    83    1
   103    27    25   ar
   104    96    95    1
   105   112   109    1
   106    95    99    1
   107    95    98    1
   108    21    22    1
   109    21    23   ar
   110   104   102    1
   111    99    93   ar
   112    99   100   ar
   113    11    93    1
   114    11    92    1
   115   101   100    1
   116    93    94   ar
   117   100   106   ar
   118    94   109    1
   119    94   107   ar
   120   106   107   ar
   121   106   102    1
   122   109   110    1
   123   109   111    1
   124   107   108    1
   125   103   102    1
   126    25    23   ar
   127    25    26    1
   128   102   105    1
   129    83    92   ar
   130    83    84   ar
   131    23    24    1
   132    92    90   ar
   133    85    84    1
   134    84    86   ar
   135    90    91    1
   136    90    88   ar
   137    86    88   ar
   138    86    87    1
   139    88    89    1
