@<TRIPOS>MOLECULE
CSD_code = JEHCIL | q = 0 | S = 0 | Stoichiometry = C63H53CoN5P | MND = 5
 123 135 0 0 0
SMALL
GASTEIGER

@<TRIPOS>ATOM
      1 CO         13.4547    4.1962   11.2085 Co.oh   1  UNL1        0.0000
      2 P          14.1943    3.8909    8.9467 P.3     1  UNL1        0.0000
      3 N          16.1974    4.4357   12.5692 N.pl3   1  UNL1        0.0000
      4 N          15.4151    2.4349   12.1989 N.pl3   1  UNL1        0.0000
      5 N          11.1839    2.6551   10.5938 N.pl3   1  UNL1        0.0000
      6 N          10.4909    4.7252   10.5786 N.pl3   1  UNL1        0.0000
      7 N          13.4521    5.9103   11.4337 N.3     1  UNL1        0.0000
      8 C          15.1061    3.7703   12.1188 C.3     1  UNL1        0.0000
      9 C          17.1963    3.5521   12.9021 C.ar    1  UNL1        0.0000
     10 C          18.4767    3.7623   13.3852 C.ar    1  UNL1        0.0000
     11 H          18.8413    4.7611   13.5734 H       1  UNL1        0.0000
     12 C          19.2598    2.6445   13.6094 C.ar    1  UNL1        0.0000
     13 H          20.2657    2.7665   13.9822 H       1  UNL1        0.0000
     14 C          18.7760    1.3634   13.3611 C.ar    1  UNL1        0.0000
     15 H          19.4184    0.5150   13.5448 H       1  UNL1        0.0000
     16 C          17.4942    1.1469   12.8866 C.ar    1  UNL1        0.0000
     17 H          17.1423    0.1452   12.7017 H       1  UNL1        0.0000
     18 C          16.6952    2.2572   12.6584 C.ar    1  UNL1        0.0000
     19 C          14.3933    1.5766   11.7677 C.ar    1  UNL1        0.0000
     20 C          14.3328    0.1920   11.7723 C.ar    1  UNL1        0.0000
     21 H          15.1480   -0.4181   12.1307 H       1  UNL1        0.0000
     22 C          13.1773   -0.4181   11.3013 C.ar    1  UNL1        0.0000
     23 H          13.1252   -1.4972   11.2893 H       1  UNL1        0.0000
     24 C          12.0779    0.3122   10.8681 C.ar    1  UNL1        0.0000
     25 H          11.1931   -0.2074   10.5350 H       1  UNL1        0.0000
     26 C          12.1578    1.6940   10.8882 C.ar    1  UNL1        0.0000
     27 C          13.3213    2.3365   11.3055 C.ar    1  UNL1        0.0000
     28 C           9.8762    2.6083   10.1851 C.ar    1  UNL1        0.0000
     29 C           9.0185    1.5854    9.8089 C.ar    1  UNL1        0.0000
     30 H           9.3384    0.5571    9.7872 H       1  UNL1        0.0000
     31 C           7.7272    1.9284    9.4484 C.ar    1  UNL1        0.0000
     32 H           7.0409    1.1502    9.1493 H       1  UNL1        0.0000
     33 C           7.2877    3.2489    9.4627 C.ar    1  UNL1        0.0000
     34 H           6.2699    3.4709    9.1788 H       1  UNL1        0.0000
     35 C           8.1313    4.2811    9.8324 C.ar    1  UNL1        0.0000
     36 H           7.7996    5.3086    9.8506 H       1  UNL1        0.0000
     37 C           9.4282    3.9450   10.1825 C.ar    1  UNL1        0.0000
     38 C          11.5773    3.9503   10.8262 C.3     1  UNL1        0.0000
     39 C          16.2968    5.8357   12.7696 C.ar    1  UNL1        0.0000
     40 C          16.9109    6.6306   11.8048 C.ar    1  UNL1        0.0000
     41 C          17.0306    7.9908   12.0450 C.ar    1  UNL1        0.0000
     42 H          17.5006    8.6174   11.3001 H       1  UNL1        0.0000
     43 C          16.5671    8.5617   13.2213 C.ar    1  UNL1        0.0000
     44 C          15.9539    7.7469   14.1623 C.ar    1  UNL1        0.0000
     45 H          15.5865    8.1834   15.0802 H       1  UNL1        0.0000
     46 C          15.8029    6.3852   13.9521 C.ar    1  UNL1        0.0000
     47 C          17.4083    6.0111   10.5373 C.3     1  UNL1        0.0000
     48 H          18.2035    5.2927   10.7386 H       1  UNL1        0.0000
     49 H          17.7871    6.7675    9.8550 H       1  UNL1        0.0000
     50 H          16.5974    5.4712   10.0488 H       1  UNL1        0.0000
     51 C          16.7012   10.0348   13.4583 C.3     1  UNL1        0.0000
     52 H          17.5935   10.4263   12.9750 H       1  UNL1        0.0000
     53 H          16.7495   10.2539   14.5223 H       1  UNL1        0.0000
     54 H          15.8358   10.5539   13.0456 H       1  UNL1        0.0000
     55 C          15.1188    5.5083   14.9545 C.3     1  UNL1        0.0000
     56 H          14.2629    5.0177   14.4892 H       1  UNL1        0.0000
     57 H          14.7753    6.0891   15.8064 H       1  UNL1        0.0000
     58 H          15.7944    4.7307   15.3119 H       1  UNL1        0.0000
     59 C          10.3658    6.1104   10.8585 C.ar    1  UNL1        0.0000
     60 C          10.3667    7.0411    9.8221 C.ar    1  UNL1        0.0000
     61 C          10.1812    8.3805   10.1324 C.ar    1  UNL1        0.0000
     62 H          10.1837    9.1086    9.3334 H       1  UNL1        0.0000
     63 C           9.9893    8.8033   11.4383 C.ar    1  UNL1        0.0000
     64 C          10.0028    7.8562   12.4529 C.ar    1  UNL1        0.0000
     65 H           9.8593    8.1759   13.4752 H       1  UNL1        0.0000
     66 C          10.1908    6.5102   12.1852 C.ar    1  UNL1        0.0000
     67 C          10.5820    6.6045    8.4059 C.3     1  UNL1        0.0000
     68 H          11.5738    6.1644    8.3054 H       1  UNL1        0.0000
     69 H          10.5144    7.4501    7.7261 H       1  UNL1        0.0000
     70 H           9.8439    5.8595    8.1091 H       1  UNL1        0.0000
     71 C           9.7465   10.2478   11.7524 C.3     1  UNL1        0.0000
     72 H          10.1248   10.8866   10.9581 H       1  UNL1        0.0000
     73 H          10.2307   10.5241   12.6863 H       1  UNL1        0.0000
     74 H           8.6764   10.4310   11.8584 H       1  UNL1        0.0000
     75 C          10.2114    5.4951   13.2851 C.3     1  UNL1        0.0000
     76 H           9.4290    4.7503   13.1370 H       1  UNL1        0.0000
     77 H          10.0624    5.9702   14.2510 H       1  UNL1        0.0000
     78 H          11.1705    4.9738   13.2882 H       1  UNL1        0.0000
     79 C          15.9109    3.3640    8.5772 C.ar    1  UNL1        0.0000
     80 C          16.4108    2.2369    9.2285 C.ar    1  UNL1        0.0000
     81 H          15.7571    1.6587    9.8627 H       1  UNL1        0.0000
     82 C          17.7292    1.8536    9.0740 C.ar    1  UNL1        0.0000
     83 H          18.0986    0.9809    9.5935 H       1  UNL1        0.0000
     84 C          18.5763    2.5913    8.2637 C.ar    1  UNL1        0.0000
     85 H          19.6086    2.2966    8.1450 H       1  UNL1        0.0000
     86 C          18.0904    3.7105    7.6093 C.ar    1  UNL1        0.0000
     87 H          18.7441    4.2903    6.9733 H       1  UNL1        0.0000
     88 C          16.7724    4.0994    7.7667 C.ar    1  UNL1        0.0000
     89 H          16.4179    4.9829    7.2564 H       1  UNL1        0.0000
     90 C          14.0506    5.2604    7.7344 C.ar    1  UNL1        0.0000
     91 C          13.7709    5.0603    6.3854 C.ar    1  UNL1        0.0000
     92 H          13.6182    4.0593    6.0079 H       1  UNL1        0.0000
     93 C          13.6936    6.1395    5.5240 C.ar    1  UNL1        0.0000
     94 H          13.4738    5.9751    4.4789 H       1  UNL1        0.0000
     95 C          13.9053    7.4261    5.9928 C.ar    1  UNL1        0.0000
     96 H          13.8458    8.2653    5.3151 H       1  UNL1        0.0000
     97 C          14.1977    7.6313    7.3308 C.ar    1  UNL1        0.0000
     98 H          14.3729    8.6335    7.6958 H       1  UNL1        0.0000
     99 C          14.2664    6.5554    8.1975 C.ar    1  UNL1        0.0000
    100 H          14.4825    6.7087    9.2455 H       1  UNL1        0.0000
    101 C          13.2193    2.6085    8.0781 C.ar    1  UNL1        0.0000
    102 C          13.6675    1.3207    7.8120 C.ar    1  UNL1        0.0000
    103 H          14.6869    1.0402    8.0275 H       1  UNL1        0.0000
    104 C          12.8131    0.3843    7.2566 C.ar    1  UNL1        0.0000
    105 H          13.1751   -0.6147    7.0596 H       1  UNL1        0.0000
    106 C          11.5037    0.7170    6.9562 C.ar    1  UNL1        0.0000
    107 H          10.8390   -0.0196    6.5291 H       1  UNL1        0.0000
    108 C          11.0509    2.0029    7.2031 C.ar    1  UNL1        0.0000
    109 H          10.0315    2.2755    6.9685 H       1  UNL1        0.0000
    110 C          11.9002    2.9347    7.7652 C.ar    1  UNL1        0.0000
    111 H          11.5435    3.9356    7.9632 H       1  UNL1        0.0000
    112 C          13.3794    7.0412   11.7041 C.3     1  UNL1        0.0000
    113 C          13.2913    8.3916   12.0432 C.ar    1  UNL1        0.0000
    114 C          13.0213    8.7632   13.3679 C.ar    1  UNL1        0.0000
    115 H          12.8784    7.9923   14.1096 H       1  UNL1        0.0000
    116 C          12.9396   10.0963   13.7056 C.ar    1  UNL1        0.0000
    117 H          12.7332   10.3802   14.7281 H       1  UNL1        0.0000
    118 C          13.1198   11.0792   12.7414 C.ar    1  UNL1        0.0000
    119 H          13.0543   12.1227   13.0127 H       1  UNL1        0.0000
    120 C          13.3802   10.7168   11.4273 C.ar    1  UNL1        0.0000
    121 H          13.5168   11.4826   10.6768 H       1  UNL1        0.0000
    122 C          13.4674    9.3875   11.0737 C.ar    1  UNL1        0.0000
    123 H          13.6650    9.0993   10.0525 H       1  UNL1        0.0000
@<TRIPOS>BOND
     1    94    93    1
     2    96    95    1
     3    93    95   ar
     4    93    91   ar
     5    95    97   ar
     6    92    91    1
     7    91    90   ar
     8   107   106    1
     9   106   108   ar
    10   106   104   ar
    11   109   108    1
    12    87    86    1
    13   105   104    1
    14   108   110   ar
    15    89    88    1
    16   104   102   ar
    17    97    98    1
    18    97    99   ar
    19    86    88   ar
    20    86    84   ar
    21    69    67    1
    22    90    99   ar
    23    90     2    1
    24   110   111    1
    25   110   101   ar
    26    88    79   ar
    27   102   103    1
    28   102   101   ar
    29   101     2    1
    30    70    67    1
    31    85    84    1
    32    99   100    1
    33    84    82   ar
    34    68    67    1
    35    67    60    1
    36    79     2    1
    37    79    80   ar
    38     2     1    1
    39    82    80   ar
    40    82    83    1
    41    32    31    1
    42    34    33    1
    43    80    81    1
    44    62    61    1
    45    31    33   ar
    46    31    29   ar
    47    33    35   ar
    48    30    29    1
    49    29    28   ar
    50    60    61   ar
    51    60    59   ar
    52    35    36    1
    53    35    37   ar
    54    49    47    1
    55    50    47    1
    56   123   122    1
    57    61    63   ar
    58    37    28   ar
    59    37     6    1
    60    28     5    1
    61    25    24    1
    62    47    48    1
    63    47    40    1
    64     6    38    1
    65     6    59    1
    66     5    38    1
    67     5    26    1
    68   121   120    1
    69    38     1    1
    70    59    66   ar
    71    24    26   ar
    72    24    22   ar
    73    26    27   ar
    74    72    71    1
    75   122   120   ar
    76   122   113   ar
    77     1    27    1
    78     1     7    1
    79     1     8    1
    80    23    22    1
    81    42    41    1
    82    22    20   ar
    83    27    19   ar
    84   120   118   ar
    85     7   112    1
    86    63    71    1
    87    63    64   ar
    88   112   113    1
    89    71    74    1
    90    71    73    1
    91    19    20   ar
    92    19     4    1
    93    20    21    1
    94    40    41   ar
    95    40    39   ar
    96   113   114   ar
    97    41    43   ar
    98     8     4    1
    99     8     3    1
   100    66    64   ar
   101    66    75    1
   102     4    18    1
   103    64    65    1
   104     3    39    1
   105     3     9    1
   106    18    16   ar
   107    18     9   ar
   108    17    16    1
   109   118   119    1
   110   118   116   ar
   111    39    46   ar
   112    16    14   ar
   113     9    10   ar
   114    52    51    1
   115    54    51    1
   116    76    75    1
   117    43    51    1
   118    43    44   ar
   119    75    78    1
   120    75    77    1
   121    14    15    1
   122    14    12   ar
   123   114   116   ar
   124   114   115    1
   125    10    11    1
   126    10    12   ar
   127    51    53    1
   128    12    13    1
   129   116   117    1
   130    46    44   ar
   131    46    55    1
   132    44    45    1
   133    56    55    1
   134    55    58    1
   135    55    57    1
