@<TRIPOS>MOLECULE
CSD_code = JEVTAI | q = 0 | S = 0 | Stoichiometry = C36H50CoF3N4O2 | MND = 6
 96 100 0 0 0
SMALL
GASTEIGER

@<TRIPOS>ATOM
      1 CO          4.5543    6.6095   12.1941 Co.oh   1  UNL1        0.0000
      2 F           4.8786    9.3758   12.5639 F       1  UNL1        0.0000
      3 F           3.2118    8.5622   13.6332 F       1  UNL1        0.0000
      4 F           5.1966    8.1991   14.3229 F       1  UNL1        0.0000
      5 O           6.4313    6.6070   12.5355 O.3     1  UNL1        0.0000
      6 O           2.7024    6.5652   11.8318 O.3     1  UNL1        0.0000
      7 N           5.9855    7.6525    9.9815 N.pl3   1  UNL1        0.0000
      8 N           3.9101    8.3415   10.0439 N.pl3   1  UNL1        0.0000
      9 N           4.2386    5.7167   13.7812 N.3     1  UNL1        0.0000
     10 N           4.8688    4.9709   11.1974 N.3     1  UNL1        0.0000
     11 C           4.8244    7.5824   10.6371 C.3     1  UNL1        0.0000
     12 C           7.3576    6.4979   11.6301 C.ar    1  UNL1        0.0000
     13 C           7.1832    6.9983   10.3138 C.ar    1  UNL1        0.0000
     14 C           2.5497    8.4444   10.3798 C.ar    1  UNL1        0.0000
     15 C           1.9849    7.4978   11.2690 C.ar    1  UNL1        0.0000
     16 C           8.1706    6.8508    9.3527 C.ar    1  UNL1        0.0000
     17 H           8.0003    7.2343    8.3597 H       1  UNL1        0.0000
     18 C           9.3698    6.2155    9.6405 C.ar    1  UNL1        0.0000
     19 C           0.4203    9.5366   10.0569 C.ar    1  UNL1        0.0000
     20 C           1.7800    9.4464    9.8097 C.ar    1  UNL1        0.0000
     21 H           2.2508   10.1727    9.1676 H       1  UNL1        0.0000
     22 C           0.5853    7.5698   11.4941 C.ar    1  UNL1        0.0000
     23 C           8.5967    5.8722   11.9312 C.ar    1  UNL1        0.0000
     24 C          -0.3828   10.6596    9.4161 C.3     1  UNL1        0.0000
     25 C           4.4533    8.2392   13.1836 C.3     1  UNL1        0.0000
     26 C           4.4848    9.1074    8.9448 C.3     1  UNL1        0.0000
     27 H           4.5363   10.1661    9.2191 H       1  UNL1        0.0000
     28 H           3.8770    8.9974    8.0437 H       1  UNL1        0.0000
     29 C          -0.0853    6.5337   12.3897 C.3     1  UNL1        0.0000
     30 C           9.5534    5.7509   10.9386 C.ar    1  UNL1        0.0000
     31 H          10.4824    5.2708   11.1835 H       1  UNL1        0.0000
     32 C           5.6241    4.3422   10.6031 C.3     1  UNL1        0.0000
     33 C          -0.1451    8.5737   10.8852 C.ar    1  UNL1        0.0000
     34 H          -1.2018    8.6175   11.0715 H       1  UNL1        0.0000
     35 C          10.4136    6.0578    8.5436 C.3     1  UNL1        0.0000
     36 C           8.8412    5.3485   13.3418 C.3     1  UNL1        0.0000
     37 C           3.9776    5.4894   14.8746 C.3     1  UNL1        0.0000
     38 C           5.8756    8.4922    8.7951 C.3     1  UNL1        0.0000
     39 H           5.9493    7.8812    7.8877 H       1  UNL1        0.0000
     40 H           6.6721    9.2394    8.7862 H       1  UNL1        0.0000
     41 C          -0.2707   10.5564    7.8879 C.3     1  UNL1        0.0000
     42 H           0.7585   10.6676    7.5579 H       1  UNL1        0.0000
     43 H          -0.8652   11.3343    7.4126 H       1  UNL1        0.0000
     44 H          -0.6346    9.5881    7.5505 H       1  UNL1        0.0000
     45 C           9.8280    5.2045    7.4083 C.3     1  UNL1        0.0000
     46 H           9.5789    4.2098    7.7739 H       1  UNL1        0.0000
     47 H          10.5519    5.1016    6.6025 H       1  UNL1        0.0000
     48 H           8.9268    5.6545    6.9999 H       1  UNL1        0.0000
     49 C          10.7957    7.4430    8.0031 C.3     1  UNL1        0.0000
     50 H           9.9438    7.9415    7.5490 H       1  UNL1        0.0000
     51 H          11.5761    7.3522    7.2501 H       1  UNL1        0.0000
     52 H          11.1657    8.0694    8.8116 H       1  UNL1        0.0000
     53 C           6.5595    3.5543    9.8615 C.3     1  UNL1        0.0000
     54 H           6.2408    3.4839    8.8219 H       1  UNL1        0.0000
     55 H           6.6200    2.5544   10.2898 H       1  UNL1        0.0000
     56 H           7.5393    4.0332    9.9103 H       1  UNL1        0.0000
     57 C           8.6930    6.5049   14.3388 C.3     1  UNL1        0.0000
     58 H           9.4228    7.2819   14.1207 H       1  UNL1        0.0000
     59 H           8.8565    6.1497   15.3545 H       1  UNL1        0.0000
     60 H           7.6983    6.9334   14.2732 H       1  UNL1        0.0000
     61 C           0.1771   12.0093    9.8866 C.3     1  UNL1        0.0000
     62 H           0.1218   12.0779   10.9706 H       1  UNL1        0.0000
     63 H          -0.3972   12.8279    9.4566 H       1  UNL1        0.0000
     64 H           1.2159   12.1311    9.5929 H       1  UNL1        0.0000
     65 C           0.4904    6.6472   13.8068 C.3     1  UNL1        0.0000
     66 H           1.5603    6.4741   13.7855 H       1  UNL1        0.0000
     67 H           0.0220    5.9143   14.4626 H       1  UNL1        0.0000
     68 H           0.3116    7.6431   14.2056 H       1  UNL1        0.0000
     69 C           7.8120    4.2541   13.6600 C.3     1  UNL1        0.0000
     70 H           6.8048    4.6491   13.5735 H       1  UNL1        0.0000
     71 H           7.9567    3.8895   14.6751 H       1  UNL1        0.0000
     72 H           7.9245    3.4160   12.9732 H       1  UNL1        0.0000
     73 C          -1.8680   10.6095    9.7846 C.3     1  UNL1        0.0000
     74 H          -2.3893   11.4362    9.3050 H       1  UNL1        0.0000
     75 H          -2.0058   10.7033   10.8589 H       1  UNL1        0.0000
     76 H          -2.3242    9.6825    9.4452 H       1  UNL1        0.0000
     77 C           3.6491    5.2076   16.2350 C.3     1  UNL1        0.0000
     78 H           3.9360    4.1873   16.4871 H       1  UNL1        0.0000
     79 H           2.5762    5.3342   16.3782 H       1  UNL1        0.0000
     80 H           4.1844    5.9070   16.8770 H       1  UNL1        0.0000
     81 C          11.6926    5.3759    9.0368 C.3     1  UNL1        0.0000
     82 H          12.1603    5.9542    9.8297 H       1  UNL1        0.0000
     83 H          12.4015    5.2965    8.2147 H       1  UNL1        0.0000
     84 H          11.4889    4.3715    9.4009 H       1  UNL1        0.0000
     85 C          10.2387    4.7460   13.5253 C.3     1  UNL1        0.0000
     86 H          10.3909    3.8831   12.8797 H       1  UNL1        0.0000
     87 H          10.3485    4.4134   14.5558 H       1  UNL1        0.0000
     88 H          11.0141    5.4825   13.3281 H       1  UNL1        0.0000
     89 C          -1.6048    6.7115   12.4827 C.3     1  UNL1        0.0000
     90 H          -1.8646    7.6702   12.9254 H       1  UNL1        0.0000
     91 H          -2.0155    5.9287   13.1183 H       1  UNL1        0.0000
     92 H          -2.0738    6.6278   11.5048 H       1  UNL1        0.0000
     93 C           0.1881    5.1312   11.8289 C.3     1  UNL1        0.0000
     94 H          -0.2235    5.0417   10.8252 H       1  UNL1        0.0000
     95 H          -0.2733    4.3753   12.4621 H       1  UNL1        0.0000
     96 H           1.2572    4.9492   11.7864 H       1  UNL1        0.0000
@<TRIPOS>BOND
     1    47    45    1
     2    48    45    1
     3    51    49    1
     4    45    46    1
     5    45    35    1
     6    43    41    1
     7    50    49    1
     8    44    41    1
     9    42    41    1
    10    39    38    1
    11    41    24    1
    12    49    35    1
    13    49    52    1
    14    28    26    1
    15    83    81    1
    16    17    16    1
    17    35    81    1
    18    35    18    1
    19    40    38    1
    20    38    26    1
    21    38     7    1
    22    54    53    1
    23    26    27    1
    24    26     8    1
    25    81    84    1
    26    81    82    1
    27    21    20    1
    28    74    73    1
    29    16    18   ar
    30    16    13   ar
    31    24    73    1
    32    24    61    1
    33    24    19    1
    34    76    73    1
    35    63    61    1
    36    64    61    1
    37    18    30   ar
    38    73    75    1
    39    20    19   ar
    40    20    14   ar
    41    53    56    1
    42    53    55    1
    43    53    32    1
    44    61    62    1
    45     7    13    1
    46     7    11    1
    47     8    14    1
    48     8    11    1
    49    19    33   ar
    50    13    12   ar
    51    14    15   ar
    52    32    10    1
    53    11     1    1
    54    94    93    1
    55    33    34    1
    56    33    22   ar
    57    30    31    1
    58    30    23   ar
    59    10     1    1
    60    15    22   ar
    61    15     6    1
    62    22    29    1
    63    92    89    1
    64    12    23   ar
    65    12     5    1
    66    96    93    1
    67    93    29    1
    68    93    95    1
    69     6     1    1
    70    23    36    1
    71     1     5    1
    72     1    25    1
    73     1     9    1
    74    29    89    1
    75    29    65    1
    76    89    90    1
    77    89    91    1
    78     2    25    1
    79    86    85    1
    80    72    69    1
    81    25     3    1
    82    25     4    1
    83    88    85    1
    84    36    85    1
    85    36    69    1
    86    36    57    1
    87    85    87    1
    88    70    69    1
    89    69    71    1
    90     9    37    1
    91    66    65    1
    92    65    68    1
    93    65    67    1
    94    58    57    1
    95    60    57    1
    96    57    59    1
    97    37    77    1
    98    77    79    1
    99    77    78    1
   100    77    80    1
