@<TRIPOS>MOLECULE
CSD_code = JUKZAQ | q = 0 | S = 0 | Stoichiometry = C18H21CoO2 | MND = 8
 42 43 0 0 0
SMALL
GASTEIGER

@<TRIPOS>ATOM
      1 CO          7.5090    6.8203    1.0407 Co.oh   1  UNL1        0.0000
      2 O           5.7524    6.9156    0.5841 O.3     1  UNL1        0.0000
      3 O           7.6454    8.6271    0.7290 O.3     1  UNL1        0.0000
      4 C           4.8840    7.7483    0.9227 C.3     1  UNL1        0.0000
      5 C           4.9799    8.6644    2.0116 C.ar    1  UNL1        0.0000
      6 C           3.8136    9.2183    2.5666 C.ar    1  UNL1        0.0000
      7 C           3.8569    9.8985    3.7581 C.ar    1  UNL1        0.0000
      8 C           5.0678   10.0303    4.4417 C.ar    1  UNL1        0.0000
      9 C           6.2285    9.5302    3.8982 C.ar    1  UNL1        0.0000
     10 C           6.2249    8.8863    2.6559 C.ar    1  UNL1        0.0000
     11 C           7.4836    8.5515    2.0037 C.3     1  UNL1        0.0000
     12 C           9.4749    6.2365    1.3005 C.2     2  UNL2        0.0000
     13 C           9.1305    5.9318   -0.0580 C.2     2  UNL2        0.0000
     14 C           8.0161    5.0672   -0.0290 C.2     2  UNL2        0.0000
     15 C           7.6945    4.7962    1.3520 C.2     2  UNL2        0.0000
     16 C           8.6339    5.4742    2.1706 C.3     2  UNL2        0.0000
     17 C          10.6964    7.0062    1.6963 C.3     2  UNL2        0.0000
     18 C           9.9204    6.3693   -1.2491 C.3     2  UNL2        0.0000
     19 C           7.3583    4.3903   -1.1883 C.3     2  UNL2        0.0000
     20 C           6.7025    3.7670    1.7963 C.3     2  UNL2        0.0000
     21 C           8.8173    5.3018    3.6473 C.3     2  UNL2        0.0000
     22 H           3.9119    7.6807    0.4173 H       1  UNL1        0.0000
     23 H           2.8743    9.0728    2.0527 H       1  UNL1        0.0000
     24 H           2.9555   10.3183    4.1790 H       1  UNL1        0.0000
     25 H           5.0931   10.5467    5.3898 H       1  UNL1        0.0000
     26 H           7.1702    9.6671    4.4111 H       1  UNL1        0.0000
     27 H           8.3722    8.7248    2.6390 H       1  UNL1        0.0000
     28 H          10.7528    7.9475    1.1527 H       2  UNL2        0.0000
     29 H          11.5882    6.4244    1.4567 H       2  UNL2        0.0000
     30 H          10.7034    7.2187    2.7623 H       2  UNL2        0.0000
     31 H          10.8406    5.7847   -1.3137 H       2  UNL2        0.0000
     32 H          10.1901    7.4195   -1.1678 H       2  UNL2        0.0000
     33 H           9.3571    6.2299   -2.1676 H       2  UNL2        0.0000
     34 H           6.2754    4.4271   -1.0918 H       2  UNL2        0.0000
     35 H           7.6353    4.8629   -2.1265 H       2  UNL2        0.0000
     36 H           7.6613    3.3421   -1.2231 H       2  UNL2        0.0000
     37 H           6.4110    3.9200    2.8325 H       2  UNL2        0.0000
     38 H           7.1432    2.7721    1.7074 H       2  UNL2        0.0000
     39 H           5.8086    3.7976    1.1779 H       2  UNL2        0.0000
     40 H           7.8799    5.0400    4.1323 H       2  UNL2        0.0000
     41 H           9.5340    4.4997    3.8354 H       2  UNL2        0.0000
     42 H           9.1975    6.2103    4.1089 H       2  UNL2        0.0000
@<TRIPOS>BOND
     1    33    18    1
     2    35    19    1
     3    31    18    1
     4    18    32    1
     5    18    13    1
     6    36    19    1
     7    19    34    1
     8    19    14    1
     9    13    14    1
    10    13    12    2
    11    14    15    2
    12    22     4    1
    13     2     4    1
    14     2     1    1
    15     3     1    1
    16     3    11    1
    17     4     5    1
    18    28    17    1
    19    39    20    1
    20    12    17    1
    21    12    16    1
    22    15    20    1
    23    15    16    1
    24    29    17    1
    25    17    30    1
    26    38    20    1
    27    20    37    1
    28    11    27    1
    29    11    10    1
    30     5     6   ar
    31     5    10   ar
    32    23     6    1
    33    16    21    1
    34     6     7   ar
    35    10     9   ar
    36    21    41    1
    37    21    42    1
    38    21    40    1
    39     7    24    1
    40     7     8   ar
    41     9    26    1
    42     9     8   ar
    43     8    25    1
