@<TRIPOS>MOLECULE
CSD_code = KAKVUO | q = 1 | S = 0 | Stoichiometry = C14H36Cl2CoP4(1+) | MND = 6
 57 58 0 0 0
SMALL
GASTEIGER

@<TRIPOS>ATOM
      1 CO          3.3257    9.0340    2.5029 Co.oh   1  UNL1        0.0000
      2 CL          4.4734    7.5360    1.3763 Cl      1  UNL1        0.0000
      3 CL          3.8684   10.7074    1.2030 Cl      1  UNL1        0.0000
      4 P           5.2062    9.2609    3.7019 P.3     1  UNL1        0.0000
      5 P           2.3914   10.6187    3.7634 P.3     1  UNL1        0.0000
      6 P           2.6176    7.5281    3.9637 P.3     1  UNL1        0.0000
      7 P           1.9729    8.5636    0.7463 P.3     1  UNL1        0.0000
      8 C           3.6536    9.3857    7.5708 C.3     1  UNL1        0.0000
      9 H           4.3593    8.6553    7.9597 H       1  UNL1        0.0000
     10 H           2.6832    9.1955    8.0239 H       1  UNL1        0.0000
     11 H           3.9845   10.3746    7.8797 H       1  UNL1        0.0000
     12 C           3.5690    9.2967    6.0401 C.3     1  UNL1        0.0000
     13 C           4.9209    9.7398    5.4634 C.3     1  UNL1        0.0000
     14 H           5.7312    9.2987    6.0517 H       1  UNL1        0.0000
     15 H           5.0065   10.8264    5.5442 H       1  UNL1        0.0000
     16 C           2.4482   10.2314    5.5727 C.3     1  UNL1        0.0000
     17 H           2.5446   11.1922    6.0890 H       1  UNL1        0.0000
     18 H           1.4852    9.8025    5.8606 H       1  UNL1        0.0000
     19 C           3.2563    7.8395    5.6680 C.3     1  UNL1        0.0000
     20 H           2.4992    7.4448    6.3545 H       1  UNL1        0.0000
     21 H           4.1613    7.2392    5.7952 H       1  UNL1        0.0000
     22 C           6.3286    7.8307    3.8753 C.3     1  UNL1        0.0000
     23 H           5.8249    6.9611    4.2896 H       1  UNL1        0.0000
     24 H           7.1540    8.1223    4.5260 H       1  UNL1        0.0000
     25 H           6.7174    7.5738    2.8912 H       1  UNL1        0.0000
     26 C           6.4122   10.4909    3.1208 C.3     1  UNL1        0.0000
     27 H           6.7989   10.1383    2.1637 H       1  UNL1        0.0000
     28 H           7.2251   10.5639    3.8442 H       1  UNL1        0.0000
     29 H           5.9549   11.4641    2.9622 H       1  UNL1        0.0000
     30 C           3.0968   12.3015    3.7331 C.3     1  UNL1        0.0000
     31 H           4.1627   12.2900    3.9463 H       1  UNL1        0.0000
     32 H           2.5780   12.9079    4.4767 H       1  UNL1        0.0000
     33 H           2.9469   12.7293    2.7433 H       1  UNL1        0.0000
     34 C           0.6298   11.0702    3.5819 C.3     1  UNL1        0.0000
     35 H          -0.0126   10.1939    3.5656 H       1  UNL1        0.0000
     36 H           0.5105   11.6193    2.6497 H       1  UNL1        0.0000
     37 H           0.3493   11.7167    4.4143 H       1  UNL1        0.0000
     38 C           0.8179    7.3634    4.2789 C.3     1  UNL1        0.0000
     39 H           0.4239    8.2522    4.7647 H       1  UNL1        0.0000
     40 H           0.6529    6.4983    4.9220 H       1  UNL1        0.0000
     41 H           0.2857    7.2164    3.3412 H       1  UNL1        0.0000
     42 C           3.0626    5.7757    3.7394 C.3     1  UNL1        0.0000
     43 H           4.1138    5.6770    3.4785 H       1  UNL1        0.0000
     44 H           2.4722    5.3623    2.9235 H       1  UNL1        0.0000
     45 H           2.8482    5.2308    4.6597 H       1  UNL1        0.0000
     46 C           0.3742    9.4500    0.6005 C.3     1  UNL1        0.0000
     47 H          -0.2872    9.2060    1.4281 H       1  UNL1        0.0000
     48 H          -0.0998    9.1587   -0.3364 H       1  UNL1        0.0000
     49 H           0.5605   10.5217    0.5831 H       1  UNL1        0.0000
     50 C           1.4289    6.8249    0.5515 C.3     1  UNL1        0.0000
     51 H           0.8903    6.4699    1.4262 H       1  UNL1        0.0000
     52 H           2.2990    6.1944    0.3804 H       1  UNL1        0.0000
     53 H           0.7697    6.7709   -0.3144 H       1  UNL1        0.0000
     54 C           2.6452    8.8807   -0.9163 C.3     1  UNL1        0.0000
     55 H           2.6564    9.9513   -1.1096 H       1  UNL1        0.0000
     56 H           1.9972    8.3828   -1.6379 H       1  UNL1        0.0000
     57 H           3.6569    8.4922   -1.0049 H       1  UNL1        0.0000
@<TRIPOS>BOND
     1    56    54    1
     2    55    54    1
     3    57    54    1
     4    54     7    1
     5    48    46    1
     6    53    50    1
     7    52    50    1
     8    50     7    1
     9    50    51    1
    10    49    46    1
    11    46     7    1
    12    46    47    1
    13     7     1    1
    14     3     1    1
    15     2     1    1
    16    27    26    1
    17     1     4    1
    18     1     5    1
    19     1     6    1
    20    36    34    1
    21    33    30    1
    22    25    22    1
    23    44    42    1
    24    29    26    1
    25    26     4    1
    26    26    28    1
    27    41    38    1
    28    43    42    1
    29    35    34    1
    30    34     5    1
    31    34    37    1
    32     4    22    1
    33     4    13    1
    34    30     5    1
    35    30    31    1
    36    30    32    1
    37    42     6    1
    38    42    45    1
    39     5    16    1
    40    22    23    1
    41    22    24    1
    42     6    38    1
    43     6    19    1
    44    38    39    1
    45    38    40    1
    46    13    15    1
    47    13    12    1
    48    13    14    1
    49    16    18    1
    50    16    12    1
    51    16    17    1
    52    19    21    1
    53    19    12    1
    54    19    20    1
    55    12     8    1
    56     8    11    1
    57     8     9    1
    58     8    10    1
