@<TRIPOS>MOLECULE
CSD_code = KEHNIV | q = 1 | S = 0 | Stoichiometry = C28H30CoN4O4(1+) | MND = 6
 67 74 0 0 0
SMALL
GASTEIGER

@<TRIPOS>ATOM
      1 CO         -2.7296   -0.0000    8.1825 Co.oh   1  UNL1        0.0000
      2 N          -1.3256    0.9096    7.1841 N.pl3   1  UNL1        0.0000
      3 N          -2.9973    1.7638    9.0409 N.4     1  UNL1        0.0000
      4 O          -1.3920   -0.5162    9.4300 O.3     1  UNL1        0.0000
      5 C          -0.2821    0.3782    6.5498 C.3     1  UNL1        0.0000
      6 C           0.7996    1.1213    6.1147 C.2     1  UNL1        0.0000
      7 C           0.8136    2.4877    6.3435 C.2     1  UNL1        0.0000
      8 C          -0.2749    3.0496    6.9852 C.2     1  UNL1        0.0000
      9 C          -1.3211    2.2336    7.3890 C.2     1  UNL1        0.0000
     10 C          -2.5442    2.7610    8.0634 C.3     1  UNL1        0.0000
     11 C          -2.3286    1.9285   10.3503 C.3     1  UNL1        0.0000
     12 C          -0.8565    1.6458   10.2455 C.ar    1  UNL1        0.0000
     13 C           0.1091    2.5821   10.5806 C.ar    1  UNL1        0.0000
     14 C           1.4476    2.2705   10.4536 C.ar    1  UNL1        0.0000
     15 C           1.8365    1.0299    9.9653 C.ar    1  UNL1        0.0000
     16 C           0.8894    0.0919    9.5998 C.ar    1  UNL1        0.0000
     17 C          -0.4919    0.3780    9.7643 C.ar    1  UNL1        0.0000
     18 O           1.1585   -1.1307    9.0466 O.3     1  UNL1        0.0000
     19 C           2.4989   -1.5633    9.0170 C.3     1  UNL1        0.0000
     20 H          -3.9953    1.9279    9.1712 H       1  UNL1        0.0000
     21 H          -0.2822   -0.6867    6.3773 H       1  UNL1        0.0000
     22 H           1.6159    0.6314    5.6096 H       1  UNL1        0.0000
     23 H           1.6466    3.0964    6.0301 H       1  UNL1        0.0000
     24 H          -0.3180    4.1086    7.1819 H       1  UNL1        0.0000
     25 H          -2.3593    3.7336    8.5316 H       1  UNL1        0.0000
     26 H          -3.3256    2.8636    7.3026 H       1  UNL1        0.0000
     27 H          -2.7836    1.2144   11.0444 H       1  UNL1        0.0000
     28 H          -2.4891    2.9448   10.7292 H       1  UNL1        0.0000
     29 H          -0.1888    3.5517   10.9517 H       1  UNL1        0.0000
     30 H           2.2011    2.9924   10.7248 H       1  UNL1        0.0000
     31 H           2.8881    0.8180    9.8570 H       1  UNL1        0.0000
     32 H           3.1074   -0.9403    8.3531 H       1  UNL1        0.0000
     33 H           2.4745   -2.5815    8.6318 H       1  UNL1        0.0000
     34 H           2.9414   -1.5670   10.0166 H       1  UNL1        0.0000
     35 N          -4.1336   -0.9094    9.1808 N.pl3   1  UNL1        0.0000
     36 N          -2.4619   -1.7639    7.3241 N.4     1  UNL1        0.0000
     37 O          -4.0671    0.5161    6.9349 O.3     1  UNL1        0.0000
     38 C          -5.1770   -0.3779    9.8152 C.3     1  UNL1        0.0000
     39 C          -6.2587   -1.1210   10.2505 C.2     1  UNL1        0.0000
     40 C          -6.2728   -2.4873   10.0218 C.2     1  UNL1        0.0000
     41 C          -5.1844   -3.0493    9.3800 C.2     1  UNL1        0.0000
     42 C          -4.1382   -2.2335    8.9760 C.2     1  UNL1        0.0000
     43 C          -2.9151   -2.7610    8.3016 C.3     1  UNL1        0.0000
     44 C          -3.1306   -1.9287    6.0146 C.3     1  UNL1        0.0000
     45 C          -4.6027   -1.6460    6.1194 C.ar    1  UNL1        0.0000
     46 C          -5.5684   -2.5822    5.7845 C.ar    1  UNL1        0.0000
     47 C          -6.9069   -2.2706    5.9116 C.ar    1  UNL1        0.0000
     48 C          -7.2957   -1.0300    6.3999 C.ar    1  UNL1        0.0000
     49 C          -6.3485   -0.0920    6.7653 C.ar    1  UNL1        0.0000
     50 C          -4.9673   -0.3781    6.6006 C.ar    1  UNL1        0.0000
     51 O          -6.6175    1.1306    7.3186 O.3     1  UNL1        0.0000
     52 C          -7.9578    1.5632    7.3486 C.3     1  UNL1        0.0000
     53 H          -1.4639   -1.9280    7.1937 H       1  UNL1        0.0000
     54 H          -5.1768    0.6869    9.9878 H       1  UNL1        0.0000
     55 H          -7.0749   -0.6309   10.7556 H       1  UNL1        0.0000
     56 H          -7.1058   -3.0960   10.3353 H       1  UNL1        0.0000
     57 H          -5.1414   -4.1083    9.1833 H       1  UNL1        0.0000
     58 H          -3.1002   -3.7336    7.8334 H       1  UNL1        0.0000
     59 H          -2.1338   -2.8638    9.0623 H       1  UNL1        0.0000
     60 H          -2.6756   -1.2147    5.3205 H       1  UNL1        0.0000
     61 H          -2.9701   -2.9451    5.6358 H       1  UNL1        0.0000
     62 H          -5.2706   -3.5519    5.4135 H       1  UNL1        0.0000
     63 H          -7.6604   -2.9925    5.6405 H       1  UNL1        0.0000
     64 H          -8.3473   -0.8180    6.5083 H       1  UNL1        0.0000
     65 H          -8.5662    0.9401    8.0126 H       1  UNL1        0.0000
     66 H          -7.9333    2.5814    7.7338 H       1  UNL1        0.0000
     67 H          -8.4006    1.5670    6.3490 H       1  UNL1        0.0000
@<TRIPOS>BOND
     1    60    44    1
     2    62    46    1
     3    22     6    1
     4    61    44    1
     5    63    47    1
     6    46    47   ar
     7    46    45   ar
     8    47    48   ar
     9    44    45    1
    10    44    36    1
    11    23     7    1
    12     6     7    2
    13     6     5    1
    14    45    50   ar
    15     7     8    1
    16    67    52    1
    17    21     5    1
    18    48    64    1
    19    48    49   ar
    20     5     2    1
    21    50    49   ar
    22    50    37    1
    23    49    51    1
    24    37     1    1
    25     8    24    1
    26     8     9    2
    27     2     9    1
    28     2     1    1
    29    53    36    1
    30    26    10    1
    31    51    52    1
    32    36     1    1
    33    36    43    1
    34    52    66    1
    35    52    65    1
    36     9    10    1
    37    58    43    1
    38    10    25    1
    39    10     3    1
    40     1     3    1
    41     1    35    1
    42     1     4    1
    43    43    42    1
    44    43    59    1
    45    32    19    1
    46    33    19    1
    47    42    35    1
    48    42    41    2
    49    19    18    1
    50    19    34    1
    51     3    20    1
    52     3    11    1
    53    18    16    1
    54    35    38    1
    55    57    41    1
    56    41    40    1
    57     4    17    1
    58    16    17   ar
    59    16    15   ar
    60    17    12   ar
    61    38    54    1
    62    38    39    1
    63    31    15    1
    64    15    14   ar
    65    40    39    2
    66    40    56    1
    67    12    11    1
    68    12    13   ar
    69    39    55    1
    70    11    28    1
    71    11    27    1
    72    14    13   ar
    73    14    30    1
    74    13    29    1
