@<TRIPOS>MOLECULE
CSD_code = KIBMAL | q = -1 | S = 0 | Stoichiometry = C26H32CoN4O4(1-) | MND = 6
 67 74 0 0 0
SMALL
GASTEIGER

@<TRIPOS>ATOM
      1 CO         -1.5215    3.1710    2.4178 Co.oh   1  UNL1        0.0000
      2 O          -1.9332    2.0763    0.9963 O.3     1  UNL1        0.0000
      3 O           0.4827    5.2873   -0.3627 O.2     1  UNL1        0.0000
      4 O           0.1945    2.5139    2.5225 O.3     1  UNL1        0.0000
      5 O          -2.1037    1.1601    5.8164 O.2     1  UNL1        0.0000
      6 N          -0.8988    4.6243    1.3187 N.am    1  UNL1        0.0000
      7 N          -1.0199    4.3865    3.9954 N.4     1  UNL1        0.0000
      8 H          -1.5255    4.2958    4.8758 H       1  UNL1        0.0000
      9 H          -0.0520    4.1192    4.1784 H       1  UNL1        0.0000
     10 N          -2.2515    1.9328    3.6848 N.am    1  UNL1        0.0000
     11 N          -3.4604    3.8667    2.2751 N.4     1  UNL1        0.0000
     12 H          -3.7107    4.6150    2.9192 H       1  UNL1        0.0000
     13 H          -3.6493    4.1914    1.3291 H       1  UNL1        0.0000
     14 C          -1.5486    2.2498   -0.2328 C.ar    1  UNL1        0.0000
     15 C          -1.9390    1.2609   -1.1660 C.ar    1  UNL1        0.0000
     16 H          -2.5067    0.4219   -0.7876 H       1  UNL1        0.0000
     17 C          -1.6082    1.3421   -2.4979 C.ar    1  UNL1        0.0000
     18 H          -1.9263    0.5600   -3.1774 H       1  UNL1        0.0000
     19 C          -0.8654    2.4157   -2.9697 C.ar    1  UNL1        0.0000
     20 H          -0.5991    2.4836   -4.0161 H       1  UNL1        0.0000
     21 C          -0.4718    3.3915   -2.0770 C.ar    1  UNL1        0.0000
     22 H           0.1124    4.2395   -2.4077 H       1  UNL1        0.0000
     23 C          -0.8035    3.3443   -0.7274 C.ar    1  UNL1        0.0000
     24 C          -0.3323    4.4799    0.1119 C.2     1  UNL1        0.0000
     25 C          -0.3906    5.7452    2.0974 C.3     1  UNL1        0.0000
     26 H           0.6995    5.6285    2.2133 H       1  UNL1        0.0000
     27 C          -0.6430    7.1252    1.4698 C.3     1  UNL1        0.0000
     28 H          -1.7198    7.2881    1.3708 H       1  UNL1        0.0000
     29 H          -0.1977    7.1340    0.4764 H       1  UNL1        0.0000
     30 C          -0.0153    8.2091    2.3421 C.3     1  UNL1        0.0000
     31 H          -0.2070    9.1929    1.9059 H       1  UNL1        0.0000
     32 H           1.0661    8.0596    2.3634 H       1  UNL1        0.0000
     33 C          -0.5541    8.1726    3.7714 C.3     1  UNL1        0.0000
     34 H          -0.0420    8.9195    4.3842 H       1  UNL1        0.0000
     35 H          -1.6188    8.4233    3.7633 H       1  UNL1        0.0000
     36 C          -0.3738    6.7838    4.3820 C.3     1  UNL1        0.0000
     37 H           0.6907    6.5535    4.4695 H       1  UNL1        0.0000
     38 H          -0.8108    6.7546    5.3859 H       1  UNL1        0.0000
     39 C          -1.0484    5.7492    3.4797 C.3     1  UNL1        0.0000
     40 H          -2.1007    6.0376    3.3588 H       1  UNL1        0.0000
     41 C           0.6147    1.6595    3.4083 C.ar    1  UNL1        0.0000
     42 C           1.9624    1.2444    3.3019 C.ar    1  UNL1        0.0000
     43 H           2.5224    1.6127    2.4542 H       1  UNL1        0.0000
     44 C           2.5467    0.4191    4.2331 C.ar    1  UNL1        0.0000
     45 H           3.5839    0.1291    4.1146 H       1  UNL1        0.0000
     46 C           1.8159   -0.0398    5.3212 C.ar    1  UNL1        0.0000
     47 H           2.2726   -0.6866    6.0583 H       1  UNL1        0.0000
     48 C           0.4932    0.3355    5.4360 C.ar    1  UNL1        0.0000
     49 H          -0.1109   -0.0115    6.2636 H       1  UNL1        0.0000
     50 C          -0.1274    1.1647    4.5081 C.ar    1  UNL1        0.0000
     51 C          -1.5763    1.4335    4.7216 C.2     1  UNL1        0.0000
     52 C          -3.6871    2.0562    3.8561 C.3     1  UNL1        0.0000
     53 H          -3.9043    2.7106    4.7229 H       1  UNL1        0.0000
     54 C          -4.3968    0.7173    4.0942 C.3     1  UNL1        0.0000
     55 H          -3.9953    0.2727    5.0039 H       1  UNL1        0.0000
     56 H          -4.1752    0.0538    3.2568 H       1  UNL1        0.0000
     57 C          -5.9010    0.9369    4.2258 C.3     1  UNL1        0.0000
     58 H          -6.4029   -0.0224    4.3742 H       1  UNL1        0.0000
     59 H          -6.0973    1.5535    5.1071 H       1  UNL1        0.0000
     60 C          -6.4749    1.6277    2.9903 C.3     1  UNL1        0.0000
     61 H          -7.5462    1.8054    3.1227 H       1  UNL1        0.0000
     62 H          -6.3465    0.9778    2.1222 H       1  UNL1        0.0000
     63 C          -5.7534    2.9482    2.7288 C.3     1  UNL1        0.0000
     64 H          -6.1449    3.4165    1.8201 H       1  UNL1        0.0000
     65 H          -5.9277    3.6327    3.5658 H       1  UNL1        0.0000
     66 C          -4.2576    2.6779    2.5834 C.3     1  UNL1        0.0000
     67 H          -4.0840    1.9678    1.7707 H       1  UNL1        0.0000
@<TRIPOS>BOND
     1    20    19    1
     2    18    17    1
     3    19    17   ar
     4    19    21   ar
     5    17    15   ar
     6    22    21    1
     7    21    23   ar
     8    15    16    1
     9    15    14   ar
    10    23    14   ar
    11    23    24    1
    12     3    24    2
    13    14     2    1
    14    24     6   am
    15    29    27    1
    16     2     1    1
    17     6    25    1
    18     6     1    1
    19    13    11    1
    20    28    27    1
    21    27    25    1
    22    27    30    1
    23    67    66    1
    24    64    63    1
    25    31    30    1
    26    25    26    1
    27    25    39    1
    28    62    60    1
    29    11     1    1
    30    11    66    1
    31    11    12    1
    32    30    32    1
    33    30    33    1
    34     1     4    1
    35     1    10    1
    36     1     7    1
    37    43    42    1
    38     4    41    1
    39    66    63    1
    40    66    52    1
    41    63    60    1
    42    63    65    1
    43    60    61    1
    44    60    57    1
    45    56    54    1
    46    42    41   ar
    47    42    44   ar
    48    40    39    1
    49    41    50   ar
    50    39     7    1
    51    39    36    1
    52    10    52    1
    53    10    51   am
    54    35    33    1
    55    33    36    1
    56    33    34    1
    57    52    54    1
    58    52    53    1
    59     7     9    1
    60     7     8    1
    61    54    57    1
    62    54    55    1
    63    45    44    1
    64    57    58    1
    65    57    59    1
    66    44    46   ar
    67    36    37    1
    68    36    38    1
    69    50    51    1
    70    50    48   ar
    71    51     5    2
    72    46    48   ar
    73    46    47    1
    74    48    49    1
