@<TRIPOS>MOLECULE
CSD_code = KIRCOG | q = 0 | S = 0 | Stoichiometry = C39H55CoO2P2Si | MND = 5
 100 107 0 0 0
SMALL
GASTEIGER

@<TRIPOS>ATOM
      1 CO         -0.6386    7.0418   13.7870 Co.oh   1  UNL1        0.0000
      2 P           1.4779    7.7951   13.1240 P.3     1  UNL1        0.0000
      3 P          -0.9127    6.8653   16.0324 P.3     1  UNL1        0.0000
      4 SI          0.4151    5.0617   14.1088 Si      1  UNL1        0.0000
      5 O          -2.2246    9.4433   13.4294 O.3     1  UNL1        0.0000
      6 O          -2.0117    5.6478   11.6251 O.3     1  UNL1        0.0000
      7 C          -1.5570    8.5200   13.6027 C.3     1  UNL1        0.0000
      8 C          -1.4671    6.1808   12.4885 C.3     1  UNL1        0.0000
      9 C          -0.3271    3.3017   13.8469 C.3     1  UNL1        0.0000
     10 H           0.2535    2.5570   14.3800 H       1  UNL1        0.0000
     11 H          -0.3268    3.0457   12.7938 H       1  UNL1        0.0000
     12 H          -1.3505    3.2376   14.1996 H       1  UNL1        0.0000
     13 C           2.4502    6.3431   12.5886 C.ar    1  UNL1        0.0000
     14 C           2.0150    5.1055   13.0632 C.ar    1  UNL1        0.0000
     15 C           2.7175    3.9632   12.7162 C.ar    1  UNL1        0.0000
     16 H           2.3742    3.0038   13.0722 H       1  UNL1        0.0000
     17 C           3.8388    4.0352   11.9093 C.ar    1  UNL1        0.0000
     18 H           4.3788    3.1371   11.6449 H       1  UNL1        0.0000
     19 C           4.2578    5.2633   11.4260 C.ar    1  UNL1        0.0000
     20 H           5.1223    5.3260   10.7802 H       1  UNL1        0.0000
     21 C           3.5661    6.4139   11.7613 C.ar    1  UNL1        0.0000
     22 H           3.8994    7.3563   11.3526 H       1  UNL1        0.0000
     23 C           0.4458    5.9272   16.8040 C.ar    1  UNL1        0.0000
     24 C           1.0462    5.0258   15.9230 C.ar    1  UNL1        0.0000
     25 C           2.0673    4.2104   16.3793 C.ar    1  UNL1        0.0000
     26 H           2.5380    3.5175   15.6971 H       1  UNL1        0.0000
     27 C           2.5009    4.2936   17.6919 C.ar    1  UNL1        0.0000
     28 H           3.3059    3.6618   18.0393 H       1  UNL1        0.0000
     29 C           1.9088    5.1968   18.5582 C.ar    1  UNL1        0.0000
     30 H           2.2500    5.2690   19.5812 H       1  UNL1        0.0000
     31 C           0.8788    6.0132   18.1203 C.ar    1  UNL1        0.0000
     32 H           0.4379    6.7159   18.8127 H       1  UNL1        0.0000
     33 C           1.4840    8.8291   11.5758 C.3     1  UNL1        0.0000
     34 H           2.5202    8.9188   11.2295 H       1  UNL1        0.0000
     35 C           0.6719    8.1168   10.4969 C.3     1  UNL1        0.0000
     36 H           1.0779    7.1154   10.3265 H       1  UNL1        0.0000
     37 H          -0.3595    8.0041   10.8429 H       1  UNL1        0.0000
     38 C           0.6839    8.9198    9.2001 C.3     1  UNL1        0.0000
     39 H           1.7084    8.9920    8.8251 H       1  UNL1        0.0000
     40 H           0.0870    8.4070    8.4433 H       1  UNL1        0.0000
     41 C           0.1302   10.3210    9.4405 C.3     1  UNL1        0.0000
     42 H          -0.9115   10.2460    9.7598 H       1  UNL1        0.0000
     43 H           0.1570   10.8983    8.5139 H       1  UNL1        0.0000
     44 C           0.9371   11.0337   10.5215 C.3     1  UNL1        0.0000
     45 H           0.5229   12.0282   10.7009 H       1  UNL1        0.0000
     46 H           1.9689   11.1581   10.1812 H       1  UNL1        0.0000
     47 C           0.9234   10.2280   11.8188 C.3     1  UNL1        0.0000
     48 H           1.5074   10.7482   12.5822 H       1  UNL1        0.0000
     49 H          -0.1031   10.1485   12.1792 H       1  UNL1        0.0000
     50 C           2.6953    8.7020   14.2228 C.3     1  UNL1        0.0000
     51 H           2.1195    9.5448   14.6321 H       1  UNL1        0.0000
     52 C           3.9705    9.2452   13.5820 C.3     1  UNL1        0.0000
     53 H           4.5650    8.4173   13.1927 H       1  UNL1        0.0000
     54 H           3.7421    9.9282   12.7624 H       1  UNL1        0.0000
     55 C           4.7968    9.9896   14.6312 C.3     1  UNL1        0.0000
     56 H           5.7033   10.3851   14.1674 H       1  UNL1        0.0000
     57 H           4.2213   10.8363   15.0140 H       1  UNL1        0.0000
     58 C           5.1650    9.0643   15.7863 C.3     1  UNL1        0.0000
     59 H           5.7456    9.6112   16.5323 H       1  UNL1        0.0000
     60 H           5.7850    8.2465   15.4118 H       1  UNL1        0.0000
     61 C           3.9026    8.4907   16.4208 C.3     1  UNL1        0.0000
     62 H           3.3169    9.3041   16.8571 H       1  UNL1        0.0000
     63 H           4.1634    7.7974   17.2235 H       1  UNL1        0.0000
     64 C           3.0661    7.7669   15.3716 C.3     1  UNL1        0.0000
     65 H           2.1559    7.3720   15.8269 H       1  UNL1        0.0000
     66 H           3.6299    6.9160   14.9784 H       1  UNL1        0.0000
     67 C          -2.2654    5.6379   16.4223 C.3     1  UNL1        0.0000
     68 H          -1.8108    4.6890   16.0990 H       1  UNL1        0.0000
     69 C          -2.6153    5.5084   17.9025 C.3     1  UNL1        0.0000
     70 H          -3.0966    6.4198   18.2619 H       1  UNL1        0.0000
     71 H          -1.7088    5.3409   18.4895 H       1  UNL1        0.0000
     72 C          -3.5749    4.3352   18.0966 C.3     1  UNL1        0.0000
     73 H          -3.0792    3.4097   17.7939 H       1  UNL1        0.0000
     74 H          -3.8370    4.2443   19.1532 H       1  UNL1        0.0000
     75 C          -4.8375    4.5308   17.2619 C.3     1  UNL1        0.0000
     76 H          -5.5078    3.6798   17.3982 H       1  UNL1        0.0000
     77 H          -5.3622    5.4265   17.6036 H       1  UNL1        0.0000
     78 C          -4.4847    4.6845   15.7849 C.3     1  UNL1        0.0000
     79 H          -5.3919    4.8472   15.1995 H       1  UNL1        0.0000
     80 H          -4.0162    3.7646   15.4266 H       1  UNL1        0.0000
     81 C          -3.5238    5.8530   15.5854 C.3     1  UNL1        0.0000
     82 H          -4.0212    6.7808   15.8735 H       1  UNL1        0.0000
     83 H          -3.2475    5.9384   14.5297 H       1  UNL1        0.0000
     84 C          -1.1795    8.2922   17.1995 C.3     1  UNL1        0.0000
     85 H          -1.1921    7.9005   18.2241 H       1  UNL1        0.0000
     86 C           0.0033    9.2451   17.0279 C.3     1  UNL1        0.0000
     87 H           0.9354    8.7173   17.2437 H       1  UNL1        0.0000
     88 H           0.0361    9.5712   15.9831 H       1  UNL1        0.0000
     89 C          -0.1238   10.4605   17.9404 C.3     1  UNL1        0.0000
     90 H          -0.0924   10.1361   18.9841 H       1  UNL1        0.0000
     91 H           0.7198   11.1351   17.7769 H       1  UNL1        0.0000
     92 C          -1.4364   11.1904   17.6771 C.3     1  UNL1        0.0000
     93 H          -1.5303   12.0468   18.3482 H       1  UNL1        0.0000
     94 H          -1.4440   11.5646   16.6509 H       1  UNL1        0.0000
     95 C          -2.6117   10.2397   17.8751 C.3     1  UNL1        0.0000
     96 H          -3.5510   10.7606   17.6774 H       1  UNL1        0.0000
     97 H          -2.6310    9.8983   18.9139 H       1  UNL1        0.0000
     98 C          -2.4902    9.0339   16.9454 C.3     1  UNL1        0.0000
     99 H          -3.3408    8.3699   17.1081 H       1  UNL1        0.0000
    100 H          -2.5249    9.3744   15.9100 H       1  UNL1        0.0000
@<TRIPOS>BOND
     1    40    38    1
     2    43    41    1
     3    39    38    1
     4    38    41    1
     5    38    35    1
     6    41    42    1
     7    41    44    1
     8    46    44    1
     9    36    35    1
    10    35    37    1
    11    35    33    1
    12    44    45    1
    13    44    47    1
    14    20    19    1
    15    34    33    1
    16    22    21    1
    17    19    21   ar
    18    19    17   ar
    19    33    47    1
    20    33     2    1
    21     6     8    1
    22    18    17    1
    23    21    13   ar
    24    47    49    1
    25    47    48    1
    26    17    15   ar
    27     8     1    1
    28    13    14   ar
    29    13     2    1
    30    15    14   ar
    31    15    16    1
    32    54    52    1
    33    11     9    1
    34    14     4    1
    35     2     1    1
    36     2    50    1
    37    53    52    1
    38     5     7    1
    39    52    50    1
    40    52    55    1
    41     7     1    1
    42     1     4    1
    43     1     3    1
    44     9     4    1
    45     9    12    1
    46     9    10    1
    47     4    24    1
    48    56    55    1
    49    50    51    1
    50    50    64    1
    51    83    81    1
    52    55    57    1
    53    55    58    1
    54    66    64    1
    55    79    78    1
    56    64    65    1
    57    64    61    1
    58    60    58    1
    59    80    78    1
    60    81    78    1
    61    81    82    1
    62    81    67    1
    63    26    25    1
    64    78    75    1
    65    58    61    1
    66    58    59    1
    67   100    98    1
    68    24    25   ar
    69    24    23   ar
    70    88    86    1
    71     3    67    1
    72     3    23    1
    73     3    84    1
    74    68    67    1
    75    25    27   ar
    76    61    62    1
    77    61    63    1
    78    67    69    1
    79    94    92    1
    80    23    31   ar
    81    98    99    1
    82    98    84    1
    83    98    95    1
    84    86    84    1
    85    86    87    1
    86    86    89    1
    87    84    85    1
    88    75    76    1
    89    75    77    1
    90    75    72    1
    91    92    95    1
    92    92    89    1
    93    92    93    1
    94    96    95    1
    95    27    28    1
    96    27    29   ar
    97    91    89    1
    98    73    72    1
    99    95    97    1
   100    69    72    1
   101    69    70    1
   102    69    71    1
   103    89    90    1
   104    72    74    1
   105    31    29   ar
   106    31    32    1
   107    29    30    1
