@<TRIPOS>MOLECULE
CSD_code = KIVKOQ | q = 1 | S = 0 | Stoichiometry = C18H22CoN8S6(1+) | MND = 6
 55 60 0 0 0
SMALL
GASTEIGER

@<TRIPOS>ATOM
      1 CO          6.5009    3.0922    4.2090 Co.oh   1  UNL1        0.0000
      2 S           4.5603    1.8638    4.3129 S.3     1  UNL1        0.0000
      3 S           2.2266    2.3398    2.5894 S.3     1  UNL1        0.0000
      4 S           9.6600    3.7475    5.8208 S.3     1  UNL1        0.0000
      5 S           7.4075    1.6111    2.7051 S.3     1  UNL1        0.0000
      6 S           9.0374   -0.7591    3.5955 S.3     1  UNL1        0.0000
      7 S           4.7347    6.2138    4.5637 S.3     1  UNL1        0.0000
      8 N           7.9928    4.3740    3.8323 N.pl3   1  UNL1        0.0000
      9 N           5.6683    3.9954    2.8243 N.pl3   1  UNL1        0.0000
     10 N           4.4586    3.7086    2.3987 N.2     1  UNL1        0.0000
     11 N           5.8867    4.1400    5.7926 N.pl3   1  UNL1        0.0000
     12 N           7.2662    2.0036    5.4961 N.pl3   1  UNL1        0.0000
     13 N           7.9531    0.9276    5.2113 N.2     1  UNL1        0.0000
     14 C           9.1916    4.6100    4.3866 C.3     1  UNL1        0.0000
     15 C          11.3255    4.4101    6.0841 C.3     1  UNL1        0.0000
     16 H          11.7168    3.8919    6.9534 H       1  UNL1        0.0000
     17 H          11.2629    5.4771    6.2666 H       1  UNL1        0.0000
     18 H          11.9329    4.2064    5.2093 H       1  UNL1        0.0000
     19 N          10.0772    5.4712    3.9253 N.2     1  UNL1        0.0000
     20 C           9.8080    6.1858    2.8399 C.2     1  UNL1        0.0000
     21 C          10.8578    7.1187    2.3577 C.3     1  UNL1        0.0000
     22 H          11.7066    7.1072    3.0344 H       1  UNL1        0.0000
     23 H          10.4593    8.1289    2.2861 H       1  UNL1        0.0000
     24 H          11.1866    6.8230    1.3627 H       1  UNL1        0.0000
     25 C           8.5774    6.0434    2.2061 C.2     1  UNL1        0.0000
     26 H           8.3155    6.6170    1.3336 H       1  UNL1        0.0000
     27 C           7.6803    5.1190    2.7350 C.2     1  UNL1        0.0000
     28 C           6.3886    4.8735    2.1889 C.3     1  UNL1        0.0000
     29 H           6.0164    5.3820    1.3112 H       1  UNL1        0.0000
     30 C           3.8322    2.7543    3.0387 C.2     1  UNL1        0.0000
     31 C           1.9265    3.5128    1.2394 C.3     1  UNL1        0.0000
     32 H           0.9006    3.3544    0.9237 H       1  UNL1        0.0000
     33 H           2.6124    3.3037    0.4260 H       1  UNL1        0.0000
     34 H           2.0647    4.5237    1.6060 H       1  UNL1        0.0000
     35 C           5.1940    5.2759    5.9551 C.3     1  UNL1        0.0000
     36 C           3.8292    7.5679    5.3569 C.3     1  UNL1        0.0000
     37 H           3.4878    8.2115    4.5526 H       1  UNL1        0.0000
     38 H           4.4974    8.1036    6.0221 H       1  UNL1        0.0000
     39 H           2.9887    7.1600    5.9077 H       1  UNL1        0.0000
     40 N           4.8157    5.7691    7.1166 N.2     1  UNL1        0.0000
     41 C           5.1225    5.1329    8.2414 C.2     1  UNL1        0.0000
     42 C           4.6401    5.7246    9.5149 C.3     1  UNL1        0.0000
     43 H           4.1759    6.6880    9.3278 H       1  UNL1        0.0000
     44 H           5.4650    5.8412   10.2147 H       1  UNL1        0.0000
     45 H           3.9096    5.0600    9.9742 H       1  UNL1        0.0000
     46 C           5.8674    3.9599    8.1892 C.2     1  UNL1        0.0000
     47 H           6.1489    3.4229    9.0786 H       1  UNL1        0.0000
     48 C           6.2379    3.4823    6.9340 C.2     1  UNL1        0.0000
     49 C           6.9914    2.2932    6.7358 C.3     1  UNL1        0.0000
     50 H           7.3237    1.6624    7.5471 H       1  UNL1        0.0000
     51 C           8.1093    0.6447    3.9434 C.2     1  UNL1        0.0000
     52 C           8.9493   -0.8252    1.7859 C.3     1  UNL1        0.0000
     53 H           9.5103   -1.7046    1.4870 H       1  UNL1        0.0000
     54 H           9.3965    0.0696    1.3635 H       1  UNL1        0.0000
     55 H           7.9127   -0.9159    1.4752 H       1  UNL1        0.0000
@<TRIPOS>BOND
     1    33    31    1
     2    32    31    1
     3    31    34    1
     4    31     3    1
     5    29    28    1
     6    26    25    1
     7    24    21    1
     8    54    52    1
     9    55    52    1
    10    53    52    1
    11    52     6    1
    12    28    27    1
    13    28     9    1
    14    25    27    2
    15    25    20    1
    16    23    21    1
    17    21    20    1
    18    21    22    1
    19    10     9    1
    20    10    30    2
    21     3    30    1
    22     5    51    1
    23     5     1    1
    24    27     8    1
    25     9     1    1
    26    20    19    2
    27    30     2    1
    28     6    51    1
    29     8     1    1
    30     8    14    1
    31    19    14    1
    32    51    13    2
    33     1     2    1
    34     1    12    1
    35     1    11    1
    36    14     4    1
    37    37    36    1
    38     7    36    1
    39     7    35    1
    40    18    15    1
    41    13    12    1
    42    36    39    1
    43    36    38    1
    44    12    49    1
    45    11    35    1
    46    11    48    1
    47     4    15    1
    48    35    40    1
    49    15    17    1
    50    15    16    1
    51    49    48    1
    52    49    50    1
    53    48    46    2
    54    40    41    2
    55    46    41    1
    56    46    47    1
    57    41    42    1
    58    43    42    1
    59    42    45    1
    60    42    44    1
