@<TRIPOS>MOLECULE
CSD_code = LAZGAW | q = 0 | S = 0 | Stoichiometry = C9H16B9CoP2 | MND = 10
 37 40 0 0 0
SMALL
GASTEIGER

@<TRIPOS>ATOM
      1 CO          2.4377    4.8302    2.9938 Co.oh   1  UNL1        0.0000
      2 P           4.5593    5.6304    2.7417 P.3     1  UNL1        0.0000
      3 P           3.3008    5.1766    0.8711 P.3     1  UNL1        0.0000
      4 B           3.1931    6.6542    3.8629 B       2  UNL2        0.0000
      5 H           3.4126    6.5346    5.0158 H       2  UNL2        0.0000
      6 B           4.3316    7.6313    2.8112 B       2  UNL2        0.0000
      7 H           5.2919    8.1437    3.2664 H       2  UNL2        0.0000
      8 B           4.3653    6.9440    1.1467 B       2  UNL2        0.0000
      9 H           5.3382    6.9592    0.4766 H       2  UNL2        0.0000
     10 B           1.5758    6.0667    1.4869 B       2  UNL2        0.0000
     11 H           0.6254    5.5400    1.0271 H       2  UNL2        0.0000
     12 B           1.6036    6.7273    3.1484 B       2  UNL2        0.0000
     13 H           0.6244    6.7028    3.8054 H       2  UNL2        0.0000
     14 B           2.6838    8.1665    3.1370 B       2  UNL2        0.0000
     15 H           2.4503    9.0920    3.8255 H       2  UNL2        0.0000
     16 B           3.3646    8.3442    1.5042 B       2  UNL2        0.0000
     17 H           3.6313    9.3992    1.0572 H       2  UNL2        0.0000
     18 B           2.7084    7.0696    0.4648 B       2  UNL2        0.0000
     19 H           2.5318    7.2058   -0.6933 H       2  UNL2        0.0000
     20 B           1.6788    7.7946    1.7079 B       2  UNL2        0.0000
     21 H           0.7543    8.4658    1.4243 H       2  UNL2        0.0000
     22 C           2.8991    3.2847    4.5177 C.ar    1  UNL1        0.0000
     23 C           1.6234    3.9062    4.7005 C.3     1  UNL1        0.0000
     24 H           1.2747    4.3547    5.6162 H       1  UNL1        0.0000
     25 C           0.8265    3.5962    3.5787 C.2     1  UNL1        0.0000
     26 H          -0.2252    3.8119    3.4795 H       1  UNL1        0.0000
     27 C           1.6120    2.9039    2.6355 C.2     1  UNL1        0.0000
     28 H           1.2562    2.4684    1.7148 H       1  UNL1        0.0000
     29 C           2.8924    2.6582    3.2226 C.ar    1  UNL1        0.0000
     30 C           4.0216    1.9516    2.7827 C.ar    1  UNL1        0.0000
     31 H           4.0187    1.4700    1.8150 H       1  UNL1        0.0000
     32 C           5.1152    1.8731    3.6095 C.ar    1  UNL1        0.0000
     33 H           5.9901    1.3253    3.2917 H       1  UNL1        0.0000
     34 C           5.1186    2.4779    4.8771 C.ar    1  UNL1        0.0000
     35 H           5.9947    2.3752    5.5003 H       1  UNL1        0.0000
     36 C           4.0301    3.1751    5.3402 C.ar    1  UNL1        0.0000
     37 H           4.0327    3.6254    6.3225 H       1  UNL1        0.0000
@<TRIPOS>BOND
     1    19    18    1
     2    18     8    1
     3    18    16    1
     4    18    20    1
     5     9     8    1
     6     3     2    1
     7    11    10    1
     8    17    16    1
     9     8    16    1
    10     8     6    1
    11    21    20    1
    12    10    20    1
    13    10    12    1
    14    16     6    1
    15    20    12    1
    16    28    27    1
    17    31    30    1
    18    27    29    1
    19    27    25    2
    20    30    29   ar
    21    30    32   ar
    22     6    14    1
    23     6     7    1
    24     1    23    1
    25    14    15    1
    26    14     4    1
    27    12    13    1
    28    12     4    1
    29    29    22   ar
    30    33    32    1
    31    26    25    1
    32    25    23    1
    33    32    34   ar
    34     4     5    1
    35    22    23    1
    36    22    36   ar
    37    23    24    1
    38    34    36   ar
    39    34    35    1
    40    36    37    1
