@<TRIPOS>MOLECULE
CSD_code = LENQUQ | q = 1 | S = 0 | Stoichiometry = C20H16CoN6S4(1+) | MND = 6
 47 54 0 0 0
SMALL
GASTEIGER

@<TRIPOS>ATOM
      1 CO          5.2623    3.1510   -0.0002 Co.oh   1  UNL1        0.0000
      2 S           4.7599    3.5314    2.9618 S.3     1  UNL1        0.0000
      3 S           4.9008    5.8511    1.3219 S.3     1  UNL1        0.0000
      4 N           6.4322    2.3539    1.3150 N.pl3   1  UNL1        0.0000
      5 N           6.5653    4.5578   -0.2441 N.pl3   1  UNL1        0.0000
      6 N           4.5000    4.1961    1.4126 N.3     1  UNL1        0.0000
      7 C           6.1171    2.5163    2.6126 C.3     1  UNL1        0.0000
      8 C           6.8219    1.8905    3.6441 C.2     1  UNL1        0.0000
      9 C           7.9064    1.1065    3.3299 C.2     1  UNL1        0.0000
     10 C           8.2663    0.9790    1.9888 C.2     1  UNL1        0.0000
     11 C           7.5101    1.6123    1.0288 C.2     1  UNL1        0.0000
     12 C           6.3140    5.7489    0.3282 C.3     1  UNL1        0.0000
     13 C           7.1251    6.8687    0.1272 C.2     1  UNL1        0.0000
     14 C           8.2469    6.7467   -0.6579 C.2     1  UNL1        0.0000
     15 C           8.5366    5.4999   -1.2110 C.2     1  UNL1        0.0000
     16 C           7.6795    4.4481   -0.9791 C.2     1  UNL1        0.0000
     17 H           6.5028    2.0513    4.6608 H       1  UNL1        0.0000
     18 H           8.4732    0.6134    4.1036 H       1  UNL1        0.0000
     19 H           9.1208    0.3935    1.6943 H       1  UNL1        0.0000
     20 H           7.7659    1.5223   -0.0155 H       1  UNL1        0.0000
     21 H           6.8552    7.7959    0.6058 H       1  UNL1        0.0000
     22 H           8.8956    7.5911   -0.8280 H       1  UNL1        0.0000
     23 H           9.4149    5.3490   -1.8157 H       1  UNL1        0.0000
     24 H           7.8806    3.4763   -1.4023 H       1  UNL1        0.0000
     25 N           4.0919    3.9479   -1.3153 N.pl3   1  UNL1        0.0000
     26 C           4.4067    3.7853   -2.6130 C.3     1  UNL1        0.0000
     27 S           5.7643    2.7708   -2.9622 S.3     1  UNL1        0.0000
     28 N           6.0244    2.1061   -1.4131 N.3     1  UNL1        0.0000
     29 N           3.9595    1.7440    0.2439 N.pl3   1  UNL1        0.0000
     30 C           4.2112    0.5528   -0.3282 C.3     1  UNL1        0.0000
     31 S           5.6240    0.4510   -1.3223 S.3     1  UNL1        0.0000
     32 C           3.4005   -0.5672   -0.1268 C.2     1  UNL1        0.0000
     33 C           2.2788   -0.4453    0.6584 C.2     1  UNL1        0.0000
     34 C           1.9887    0.8014    1.2112 C.2     1  UNL1        0.0000
     35 C           2.8454    1.8535    0.9789 C.2     1  UNL1        0.0000
     36 H           2.6439    2.8254    1.4018 H       1  UNL1        0.0000
     37 H           1.1106    0.9522    1.8162 H       1  UNL1        0.0000
     38 H           1.6307   -1.2902    0.8293 H       1  UNL1        0.0000
     39 H           3.6707   -1.4944   -0.6051 H       1  UNL1        0.0000
     40 C           3.7016    4.4108   -3.6443 C.2     1  UNL1        0.0000
     41 C           2.6170    5.1948   -3.3300 C.2     1  UNL1        0.0000
     42 C           2.2574    5.3223   -1.9888 C.2     1  UNL1        0.0000
     43 C           3.0140    4.6893   -1.0289 C.2     1  UNL1        0.0000
     44 H           2.7587    4.7798    0.0155 H       1  UNL1        0.0000
     45 H           1.4027    5.9075   -1.6942 H       1  UNL1        0.0000
     46 H           2.0494    5.6869   -4.1036 H       1  UNL1        0.0000
     47 H           4.0202    4.2496   -4.6612 H       1  UNL1        0.0000
@<TRIPOS>BOND
     1    47    40    1
     2    46    41    1
     3    40    41    2
     4    40    26    1
     5    41    42    1
     6    27    26    1
     7    27    28    1
     8    26    25    1
     9    42    45    1
    10    42    43    2
    11    23    15    1
    12    28    31    1
    13    28     1    1
    14    24    16    1
    15    31    30    1
    16    25    43    1
    17    25     1    1
    18    15    16    2
    19    15    14    1
    20    43    44    1
    21    16     5    1
    22    22    14    1
    23    14    13    2
    24    39    32    1
    25    30    32    1
    26    30    29    1
    27     5     1    1
    28     5    12    1
    29    32    33    2
    30    20    11    1
    31     1    29    1
    32     1     4    1
    33     1     6    1
    34    13    12    1
    35    13    21    1
    36    29    35    1
    37    12     3    1
    38    33    38    1
    39    33    34    1
    40    35    34    2
    41    35    36    1
    42    11     4    1
    43    11    10    2
    44    34    37    1
    45     4     7    1
    46     3     6    1
    47     6     2    1
    48    19    10    1
    49    10     9    1
    50     7     2    1
    51     7     8    1
    52     9     8    2
    53     9    18    1
    54     8    17    1
