@<TRIPOS>MOLECULE
CSD_code = LEWMEI | q = 1 | S = 0 | Stoichiometry = C22H20CoN10(1+) | MND = 6
 53 60 0 0 0
SMALL
GASTEIGER

@<TRIPOS>ATOM
      1 CO          1.0718    3.2924    3.2498 Co.oh   1  UNL1        0.0000
      2 N           0.3205    4.5345    4.4906 N.pl3   1  UNL1        0.0000
      3 N           0.9253    1.8204    4.3267 N.3     1  UNL1        0.0000
      4 N           2.8008    3.4571    4.0436 N.pl3   1  UNL1        0.0000
      5 N          -0.7224    6.6561    5.9343 N.2     1  UNL1        0.0000
      6 N          -0.6783    2.7574    2.6966 N.pl3   1  UNL1        0.5000
      7 N           1.8279    2.3997    1.7374 N.pl3   1  UNL1        0.5000
      8 N           1.2140    4.7558    2.1604 N.pl3   1  UNL1        0.0000
      9 N           5.1974    3.2872    5.4224 N.2     1  UNL1        0.0000
     10 N          -0.1779    1.1322    4.2763 N.pl3   1  UNL1        0.5000
     11 N           1.7256    4.5898    0.9757 N.2     1  UNL1        0.5000
     12 C           2.6675    0.6707    0.3357 C.2     1  UNL1        0.0000
     13 H           2.8912   -0.3750    0.2100 H       1  UNL1        0.0000
     14 C           2.9128    1.5902   -0.6860 C.2     1  UNL1        0.0000
     15 H           3.3362    1.2620   -1.6221 H       1  UNL1        0.0000
     16 C           2.6057    2.9125   -0.4843 C.2     1  UNL1        0.0000
     17 H           2.7679    3.6675   -1.2347 H       1  UNL1        0.0000
     18 C           0.2819    5.7856    3.9580 C.2     1  UNL1        0.0000
     19 C           0.7983    5.9071    2.6339 C.2     1  UNL1        0.0000
     20 C          -0.1618    4.3629    5.7180 C.2     1  UNL1        0.0000
     21 H          -0.1398    3.3675    6.1380 H       1  UNL1        0.0000
     22 C          -3.1491    1.5775    2.2414 C.2     1  UNL1        0.0000
     23 H          -4.1126    1.1303    2.0551 H       1  UNL1        0.0000
     24 C          -2.7550    2.7171    1.5373 C.2     1  UNL1        0.0000
     25 H          -3.3983    3.1670    0.8004 H       1  UNL1        0.0000
     26 C          -0.2551    6.8396    4.7276 C.2     1  UNL1        0.0000
     27 H          -0.2966    7.8435    4.3322 H       1  UNL1        0.0000
     28 C           0.8578    7.1841    1.8642 C.3     1  UNL1        0.0000
     29 H           1.2999    6.9875    0.8909 H       1  UNL1        0.0000
     30 H           1.4608    7.9242    2.3884 H       1  UNL1        0.0000
     31 H          -0.1400    7.5978    1.7251 H       1  UNL1        0.0000
     32 C           3.7760    4.3387    3.8430 C.3     1  UNL1        0.0000
     33 H           3.6091    5.1260    3.1219 H       1  UNL1        0.0000
     34 C           4.9756    4.2488    4.5347 C.2     1  UNL1        0.0000
     35 H           5.7716    4.9590    4.3755 H       1  UNL1        0.0000
     36 C           1.9652    0.3696    6.0372 C.3     1  UNL1        0.0000
     37 H           2.0956    0.7004    7.0666 H       1  UNL1        0.0000
     38 H           2.7842   -0.3053    5.7925 H       1  UNL1        0.0000
     39 H           1.0240   -0.1673    5.9515 H       1  UNL1        0.0000
     40 C           1.9429    1.5342    5.1046 C.3     1  UNL1        0.0000
     41 C          -0.6836    5.4284    6.4374 C.2     1  UNL1        0.0000
     42 H          -1.0771    5.2967    7.4331 H       1  UNL1        0.0000
     43 C           4.2491    2.4116    5.6282 C.2     1  UNL1        0.0000
     44 H           4.4466    1.6350    6.3521 H       1  UNL1        0.0000
     45 C          -1.5197    3.2679    1.7968 C.3     1  UNL1        0.0000
     46 H          -1.1885    4.1485    1.2631 H       1  UNL1        0.0000
     47 C           2.0527    3.3084    0.7445 C.2     1  UNL1        0.0000
     48 C          -2.2947    1.0345    3.1679 C.2     1  UNL1        0.0000
     49 H          -2.5396    0.1552    3.7392 H       1  UNL1        0.0000
     50 C           3.0159    2.4601    4.9439 C.2     1  UNL1        0.0000
     51 C           2.1286    1.1187    1.5214 C.2     1  UNL1        0.0000
     52 H           1.9265    0.4270    2.3280 H       1  UNL1        0.0000
     53 C          -1.0458    1.6389    3.3862 C.2     1  UNL1        0.0000
@<TRIPOS>BOND
     1    15    14    1
     2    17    16    1
     3    14    16    2
     4    14    12    1
     5    16    47    1
     6    13    12    1
     7    12    51    2
     8    47    11    2
     9    47     7    1
    10    25    24    1
    11    29    28    1
    12    11     8    1
    13    46    45    1
    14    51     7    1
    15    51    52    1
    16    24    45    1
    17    24    22    2
    18    31    28    1
    19     7     1    1
    20    45     6    1
    21    28    30    1
    22    28    19    1
    23    23    22    1
    24     8    19    1
    25     8     1    1
    26    22    48    1
    27    19    18    2
    28     6     1    1
    29     6    53    1
    30    33    32    1
    31    48    53    2
    32    48    49    1
    33     1     4    1
    34     1     3    1
    35     1     2    1
    36    53    10    1
    37    32     4    1
    38    32    34    1
    39    18     2    1
    40    18    26    1
    41     4    50    1
    42    10     3    1
    43     3    40    1
    44    27    26    1
    45    35    34    1
    46     2    20    1
    47    34     9    2
    48    26     5    2
    49    50    40    1
    50    50    43    2
    51    40    36    1
    52     9    43    1
    53    43    44    1
    54    20    21    1
    55    20    41    2
    56    38    36    1
    57     5    41    1
    58    39    36    1
    59    36    37    1
    60    41    42    1
