@<TRIPOS>MOLECULE
CSD_code = LEWQEL | q = 0 | S = 0 | Stoichiometry = C26H19CoN4O2S2 | MND = 6
 54 61 0 0 0
SMALL
GASTEIGER

@<TRIPOS>ATOM
      1 CO         13.3659   19.0586    0.2556 Co.oh   1  UNL1        0.0000
      2 S          14.8887   17.6113   -0.5191 S.3     1  UNL1        0.0000
      3 S          14.7818   19.3550    2.0222 S.3     1  UNL1        0.0000
      4 O          14.0443   22.7076   -1.0788 O.2     1  UNL1        0.0000
      5 O          10.6386   16.3513    1.0840 O.2     1  UNL1        0.0000
      6 N          14.2207   20.4277   -0.6884 N.am    1  UNL1        0.0000
      7 N          12.1348   20.4324    0.8394 N.pl3   1  UNL1        0.0000
      8 N          12.5044   17.7184    1.2527 N.am    1  UNL1        0.0000
      9 N          12.2658   18.5556   -1.1486 N.pl3   1  UNL1        0.0000
     10 C          15.7974   18.8031   -1.4245 C.ar    1  UNL1        0.0000
     11 C          16.9265   18.4224   -2.1339 C.ar    1  UNL1        0.0000
     12 H          17.2291   17.3867   -2.1135 H       1  UNL1        0.0000
     13 C          17.6448   19.3642   -2.8460 C.ar    1  UNL1        0.0000
     14 H          18.5257   19.0657   -3.3946 H       1  UNL1        0.0000
     15 C          17.2312   20.6870   -2.8505 C.ar    1  UNL1        0.0000
     16 H          17.7902   21.4270   -3.4037 H       1  UNL1        0.0000
     17 C          16.1044   21.0764   -2.1508 C.ar    1  UNL1        0.0000
     18 H          15.7860   22.1053   -2.1567 H       1  UNL1        0.0000
     19 C          15.3682   20.1411   -1.4230 C.ar    1  UNL1        0.0000
     20 C          13.6825   21.6473   -0.5747 C.2     1  UNL1        0.0000
     21 C          12.4769   21.6138    0.3141 C.3     1  UNL1        0.0000
     22 C          11.7644   22.7781    0.5805 C.2     1  UNL1        0.0000
     23 H          12.1029   23.6926    0.1188 H       1  UNL1        0.0000
     24 C          10.6675   22.7174    1.4163 C.2     1  UNL1        0.0000
     25 H          10.0943   23.6029    1.6453 H       1  UNL1        0.0000
     26 C          10.3172   21.4867    1.9570 C.2     1  UNL1        0.0000
     27 H           9.4684   21.3854    2.6142 H       1  UNL1        0.0000
     28 C          11.0747   20.3736    1.6414 C.2     1  UNL1        0.0000
     29 H          10.8187   19.4043    2.0473 H       1  UNL1        0.0000
     30 C          14.0014   18.1222    3.0532 C.ar    1  UNL1        0.0000
     31 C          14.5009   17.8841    4.3202 C.ar    1  UNL1        0.0000
     32 H          15.3459   18.4558    4.6741 H       1  UNL1        0.0000
     33 C          13.9093   16.9185    5.1138 C.ar    1  UNL1        0.0000
     34 H          14.2874   16.7281    6.1061 H       1  UNL1        0.0000
     35 C          12.8375   16.1919    4.6148 C.ar    1  UNL1        0.0000
     36 H          12.3784   15.4288    5.2253 H       1  UNL1        0.0000
     37 C          12.3441   16.4221    3.3471 C.ar    1  UNL1        0.0000
     38 H          11.5130   15.8509    2.9687 H       1  UNL1        0.0000
     39 C          12.9196   17.4029    2.5277 C.ar    1  UNL1        0.0000
     40 C          11.4587   17.1429    0.6380 C.2     1  UNL1        0.0000
     41 C          11.3786   17.6261   -0.7773 C.3     1  UNL1        0.0000
     42 C          10.4514   17.0899   -1.6602 C.2     1  UNL1        0.0000
     43 H           9.7695   16.3425   -1.2852 H       1  UNL1        0.0000
     44 C          10.4447   17.5233   -2.9725 C.2     1  UNL1        0.0000
     45 H           9.7409   17.1230   -3.6859 H       1  UNL1        0.0000
     46 C          11.3749   18.4813   -3.3514 C.2     1  UNL1        0.0000
     47 H          11.4187   18.8469   -4.3648 H       1  UNL1        0.0000
     48 C          12.2649   18.9721   -2.4135 C.2     1  UNL1        0.0000
     49 H          13.0008   19.7124   -2.6935 H       1  UNL1        0.0000
     50 C          14.2984   20.8180    2.9028 C.2     1  UNL1        0.0000
     51 H          13.6670   20.6273    3.7582 H       1  UNL1        0.0000
     52 C          14.7014   22.0247    2.5451 C.2     1  UNL1        0.0000
     53 H          15.3356   22.1820    1.6894 H       1  UNL1        0.0000
     54 H          14.4002   22.9010    3.0935 H       1  UNL1        0.0000
@<TRIPOS>BOND
     1    47    46    1
     2    45    44    1
     3    16    15    1
     4    14    13    1
     5    46    44    1
     6    46    48    2
     7    44    42    2
     8    15    13   ar
     9    15    17   ar
    10    13    11   ar
    11    49    48    1
    12    48     9    1
    13    18    17    1
    14    17    19   ar
    15    11    12    1
    16    11    10   ar
    17    42    43    1
    18    42    41    1
    19    10    19   ar
    20    10     2    1
    21    19     6    1
    22     9    41    1
    23     9     1    1
    24     4    20    2
    25    41    40    1
    26     6    20   am
    27     6     1    1
    28    20    21    1
    29     2     1    1
    30    23    22    1
    31     1     7    1
    32     1     8    1
    33     1     3    1
    34    21    22    1
    35    21     7    1
    36    22    24    2
    37    40     5    2
    38    40     8   am
    39     7    28    1
    40     8    39    1
    41    24    25    1
    42    24    26    1
    43    28    26    2
    44    28    29    1
    45    53    52    1
    46    26    27    1
    47     3    50    1
    48     3    30    1
    49    39    30   ar
    50    39    37   ar
    51    52    50    2
    52    52    54    1
    53    50    51    1
    54    38    37    1
    55    30    31   ar
    56    37    35   ar
    57    31    32    1
    58    31    33   ar
    59    35    33   ar
    60    35    36    1
    61    33    34    1
