@<TRIPOS>MOLECULE
CSD_code = LITYAO | q = 1 | S = 0 | Stoichiometry = C13H26Cl2CoN4O4(1+) | MND = 6
 50 52 0 0 0
SMALL
GASTEIGER

@<TRIPOS>ATOM
      1 CO          1.9085    1.6014    3.3392 Co.oh   1  UNL1        0.0000
      2 CL          4.9158   -0.2028    6.6115 Cl      1  UNL1        0.0000
      3 CL          4.6029   -3.2512    3.5700 Cl      1  UNL1        0.0000
      4 O           3.0331    0.7640    1.8732 O.2     1  UNL1        0.0000
      5 O           3.4323    2.4878    3.9726 O.3     1  UNL1        0.0000
      6 O           1.3588    2.5750    5.6482 O.2     1  UNL1        0.0000
      7 O          -0.1492    2.8723    4.1393 O.2     1  UNL1        0.0000
      8 N           1.5547    3.0295    1.9459 N.4     1  UNL1        0.0000
      9 H          -0.5136    1.0910    3.0464 H       1  UNL1        0.0000
     10 N           0.3214    0.7323    2.5722 N.4     1  UNL1        0.0000
     11 H           1.4842    3.9849    2.2980 H       1  UNL1        0.0000
     12 H           2.3559    3.0044    1.3137 H       1  UNL1        0.0000
     13 N           2.0711   -0.2322    4.5717 N.4     1  UNL1        0.0000
     14 N           0.9219    2.4488    4.5368 N.pl3   1  UNL1        0.0000
     15 C           0.3304    2.6847    1.1939 C.3     1  UNL1        0.0000
     16 H           0.3562    3.0918    0.1798 H       1  UNL1        0.0000
     17 H          -0.5260    3.1089    1.7230 H       1  UNL1        0.0000
     18 C           0.2134    1.1633    1.1728 C.3     1  UNL1        0.0000
     19 H          -0.7314    0.8449    0.7215 H       1  UNL1        0.0000
     20 H           1.0438    0.7282    0.6134 H       1  UNL1        0.0000
     21 C           0.3947   -0.7091    2.8002 C.3     1  UNL1        0.0000
     22 H           1.1503   -1.1288    2.1346 H       1  UNL1        0.0000
     23 H          -0.5607   -1.2046    2.5943 H       1  UNL1        0.0000
     24 C           0.7807   -0.9023    4.2635 C.3     1  UNL1        0.0000
     25 H           0.8249   -1.9671    4.5068 H       1  UNL1        0.0000
     26 H           0.0039   -0.4531    4.8896 H       1  UNL1        0.0000
     27 C           2.1850   -0.1166    6.0457 C.3     1  UNL1        0.0000
     28 H           1.2933    0.3935    6.4164 H       1  UNL1        0.0000
     29 H           2.2022   -1.1202    6.4832 H       1  UNL1        0.0000
     30 C           3.3664    0.6923    6.5652 C.3     1  UNL1        0.0000
     31 H           3.1591    0.9839    7.5935 H       1  UNL1        0.0000
     32 H           3.5220    1.5856    5.9673 H       1  UNL1        0.0000
     33 C           3.2008   -1.0275    4.0402 C.3     1  UNL1        0.0000
     34 H           4.1123   -0.4456    4.1795 H       1  UNL1        0.0000
     35 H           3.0475   -1.1651    2.9714 H       1  UNL1        0.0000
     36 C           3.4386   -2.4166    4.6426 C.3     1  UNL1        0.0000
     37 H           2.5472   -3.0413    4.6683 H       1  UNL1        0.0000
     38 H           3.9014   -2.3705    5.6262 H       1  UNL1        0.0000
     39 C           4.9109    0.1024    0.5848 C.3     1  UNL1        0.0000
     40 H           4.1500   -0.3050   -0.0759 H       1  UNL1        0.0000
     41 H           5.4741   -0.7237    1.0172 H       1  UNL1        0.0000
     42 H           5.6039    0.7170    0.0173 H       1  UNL1        0.0000
     43 C           4.2802    0.8920    1.6965 C.2     1  UNL1        0.0000
     44 C           5.1051    1.7025    2.4819 C.2     1  UNL1        0.0000
     45 H           6.1548    1.7446    2.2492 H       1  UNL1        0.0000
     46 C           4.6383    2.4394    3.5638 C.3     1  UNL1        0.0000
     47 C           5.6226    3.2502    4.3616 C.3     1  UNL1        0.0000
     48 H           5.0947    3.9134    5.0415 H       1  UNL1        0.0000
     49 H           6.2663    3.8268    3.7035 H       1  UNL1        0.0000
     50 H           6.2502    2.5762    4.9426 H       1  UNL1        0.0000
@<TRIPOS>BOND
     1    40    39    1
     2    42    39    1
     3    16    15    1
     4    39    41    1
     5    39    43    1
     6    20    18    1
     7    19    18    1
     8    18    15    1
     9    18    10    1
    10    15    17    1
    11    15     8    1
    12    12     8    1
    13    43     4    1
    14    43    44    2
    15     4     1    1
    16     8    11    1
    17     8     1    1
    18    22    21    1
    19    45    44    1
    20    44    46    1
    21    10    21    1
    22    10     9    1
    23    10     1    1
    24    23    21    1
    25    21    24    1
    26    35    33    1
    27     1     5    1
    28     1    14    1
    29     1    13    1
    30    46     5    1
    31    46    47    1
    32     3    36    1
    33    49    47    1
    34    33    34    1
    35    33    13    1
    36    33    36    1
    37     7    14    2
    38    24    25    1
    39    24    13    1
    40    24    26    1
    41    47    50    1
    42    47    48    1
    43    14     6    2
    44    13    27    1
    45    36    37    1
    46    36    38    1
    47    32    30    1
    48    27    28    1
    49    27    29    1
    50    27    30    1
    51    30     2    1
    52    30    31    1
