@<TRIPOS>MOLECULE
CSD_code = LOPREO | q = 0 | S = 0 | Stoichiometry = C25H34CoN3 | MND = 4
 63 66 0 0 0
SMALL
GASTEIGER

@<TRIPOS>ATOM
      1 CO          2.3804    4.7053    9.1913 Co.oh   1  UNL1        0.0000
      2 C           2.8584    3.6375   10.7704 C.3     1  UNL1        0.0000
      3 H           3.8724    3.7969   11.1489 H       1  UNL1        0.0000
      4 H           2.7346    2.5578   10.6647 H       1  UNL1        0.0000
      5 H           2.1704    3.9398   11.5725 H       1  UNL1        0.0000
      6 N           2.6490    5.4106    7.5936 N.pl3   1  UNL1        0.0000
      7 C           2.4004    4.6412    6.5016 C.3     1  UNL1        0.0000
      8 C           2.8753    5.0141    5.2488 C.2     1  UNL1        0.0000
      9 H           2.6619    4.4108    4.3804 H       1  UNL1        0.0000
     10 C           3.6479    6.1639    5.1439 C.2     1  UNL1        0.0000
     11 H           4.0294    6.4694    4.1813 H       1  UNL1        0.0000
     12 C           3.9590    6.9056    6.2763 C.2     1  UNL1        0.0000
     13 H           4.5975    7.7715    6.1959 H       1  UNL1        0.0000
     14 C           3.4508    6.5057    7.5095 C.2     1  UNL1        0.0000
     15 C           1.6289    3.4968    6.8905 C.3     1  UNL1        0.0000
     16 C           0.9062    2.6589    5.8822 C.3     1  UNL1        0.0000
     17 H           0.1875    2.0042    6.3695 H       1  UNL1        0.0000
     18 H           1.6094    2.0498    5.3145 H       1  UNL1        0.0000
     19 H           0.3819    3.3043    5.1778 H       1  UNL1        0.0000
     20 N           1.5621    3.3450    8.1943 N.pl3   1  UNL1        0.0000
     21 C           0.7851    2.3274    8.7729 C.ar    1  UNL1        0.0000
     22 C           1.1401    0.9747    8.6622 C.ar    1  UNL1        0.0000
     23 C           0.3336    0.0260    9.2760 C.ar    1  UNL1        0.0000
     24 H           0.5946   -1.0189    9.2045 H       1  UNL1        0.0000
     25 C          -0.7980    0.3923    9.9769 C.ar    1  UNL1        0.0000
     26 H          -1.4215   -0.3634   10.4317 H       1  UNL1        0.0000
     27 C          -1.1198    1.7305   10.1141 C.ar    1  UNL1        0.0000
     28 H          -1.9934    2.0063   10.6830 H       1  UNL1        0.0000
     29 C          -0.3324    2.7115    9.5352 C.ar    1  UNL1        0.0000
     30 C           2.4060    0.5332    7.9608 C.3     1  UNL1        0.0000
     31 H           2.8556    1.3949    7.4607 H       1  UNL1        0.0000
     32 C           3.4196    0.0221    8.9888 C.3     1  UNL1        0.0000
     33 H           3.6768    0.8134    9.6878 H       1  UNL1        0.0000
     34 H           4.3288   -0.3031    8.4873 H       1  UNL1        0.0000
     35 H           3.0138   -0.8168    9.5495 H       1  UNL1        0.0000
     36 C           2.1319   -0.5502    6.9139 C.3     1  UNL1        0.0000
     37 H           1.3308   -0.2541    6.2407 H       1  UNL1        0.0000
     38 H           1.8465   -1.4855    7.3888 H       1  UNL1        0.0000
     39 H           3.0288   -0.7330    6.3253 H       1  UNL1        0.0000
     40 C          -0.6436    4.1812    9.6942 C.3     1  UNL1        0.0000
     41 H           0.3341    4.7202    9.7102 H       1  UNL1        0.0000
     42 C          -1.3628    4.5138   10.9988 C.3     1  UNL1        0.0000
     43 H          -1.3638    5.5913   11.1505 H       1  UNL1        0.0000
     44 H          -0.8560    4.0505   11.8417 H       1  UNL1        0.0000
     45 H          -2.3972    4.1765   10.9800 H       1  UNL1        0.0000
     46 C          -1.4508    4.6879    8.4963 C.3     1  UNL1        0.0000
     47 H          -0.8991    4.5482    7.5698 H       1  UNL1        0.0000
     48 H          -1.6701    5.7476    8.6096 H       1  UNL1        0.0000
     49 H          -2.3925    4.1458    8.4219 H       1  UNL1        0.0000
     50 C           3.6203    7.0694    8.8173 C.3     1  UNL1        0.0000
     51 C           4.2327    8.4196    9.0320 C.3     1  UNL1        0.0000
     52 H           5.1565    8.3394    9.6071 H       1  UNL1        0.0000
     53 H           3.5468    9.0670    9.5777 H       1  UNL1        0.0000
     54 H           4.4624    8.8857    8.0792 H       1  UNL1        0.0000
     55 N           3.1499    6.3041    9.7801 N.3     1  UNL1        0.0000
     56 C           3.1318    6.8404   11.1225 C.3     1  UNL1        0.0000
     57 H           4.0378    7.4251   11.3294 H       1  UNL1        0.0000
     58 H           3.1185    6.0062   11.8294 H       1  UNL1        0.0000
     59 C           1.9262    7.6961   11.4051 C.2     1  UNL1        0.0000
     60 H           1.9355    8.1525   12.3870 H       1  UNL1        0.0000
     61 C           0.9111    7.8865   10.5839 C.2     1  UNL1        0.0000
     62 H           0.8791    7.4349    9.6050 H       1  UNL1        0.0000
     63 H           0.0690    8.4994   10.8576 H       1  UNL1        0.0000
@<TRIPOS>BOND
     1    11    10    1
     2     9     8    1
     3    10     8    2
     4    10    12    1
     5    19    16    1
     6     8     7    1
     7    18    16    1
     8    16    17    1
     9    16    15    1
    10    13    12    1
    11    37    36    1
    12    12    14    2
    13    39    36    1
    14     7    15    1
    15     7     6    1
    16    15    20    1
    17    36    38    1
    18    36    30    1
    19    31    30    1
    20    14     6    1
    21    14    50    1
    22    47    46    1
    23     6     1    1
    24    30    22    1
    25    30    32    1
    26    54    51    1
    27    20    21    1
    28    20     1    1
    29    49    46    1
    30    34    32    1
    31    46    48    1
    32    46    40    1
    33    22    21   ar
    34    22    23   ar
    35    21    29   ar
    36    50    51    1
    37    50    55    1
    38    32    35    1
    39    32    33    1
    40    51    53    1
    41    51    52    1
    42     1    55    1
    43     1     2    1
    44    24    23    1
    45    23    25   ar
    46    29    40    1
    47    29    27   ar
    48    62    61    1
    49    40    41    1
    50    40    42    1
    51    55    56    1
    52    25    27   ar
    53    25    26    1
    54    27    28    1
    55    61    63    1
    56    61    59    2
    57     4     2    1
    58     2     3    1
    59     2     5    1
    60    45    42    1
    61    42    43    1
    62    42    44    1
    63    56    57    1
    64    56    59    1
    65    56    58    1
    66    59    60    1
