@<TRIPOS>MOLECULE
CSD_code = LUFQEI | q = 0 | S = 0 | Stoichiometry = C58H51BCoN2P3 | MND = 4
 116 126 0 0 0
SMALL
GASTEIGER

@<TRIPOS>ATOM
      1 CO          5.4396    6.1669   16.2508 Co.oh   1  UNL1        0.0000
      2 P           4.2749    4.7182   15.0850 P.3     1  UNL1        0.0000
      3 P           3.6608    6.3532   17.5446 P.3     1  UNL1        0.0000
      4 P           5.1895    7.5628   14.5152 P.3     1  UNL1        0.0000
      5 N           6.6515    6.7688   17.2129 N.pl3   1  UNL1        0.0000
      6 N           7.3137    7.5230   17.8416 N.2     1  UNL1        0.0000
      7 B           2.3249    6.8189   14.8766 B       1  UNL1        0.0000
      8 C           3.4136    8.0043   14.4676 C.3     1  UNL1        0.0000
      9 H           3.3254    8.8440   15.1656 H       1  UNL1        0.0000
     10 H           3.2240    8.4269   13.4747 H       1  UNL1        0.0000
     11 C           0.8950    7.2012   14.2061 C.ar    1  UNL1        0.0000
     12 C           3.6023    9.0158   18.3281 C.ar    1  UNL1        0.0000
     13 H           3.4709    9.2074   17.2728 H       1  UNL1        0.0000
     14 C           3.9714    2.9149   19.6969 C.ar    1  UNL1        0.0000
     15 H           4.7363    2.1736   19.8780 H       1  UNL1        0.0000
     16 C           5.9443    9.2276   14.5910 C.ar    1  UNL1        0.0000
     17 C           7.0624    6.7711   12.6950 C.ar    1  UNL1        0.0000
     18 H           7.7139    6.8818   13.5536 H       1  UNL1        0.0000
     19 C           3.6795   10.0715   19.2158 C.ar    1  UNL1        0.0000
     20 H           3.6241   11.0867   18.8497 H       1  UNL1        0.0000
     21 C           2.4053    3.0008   16.3211 C.ar    1  UNL1        0.0000
     22 H           1.6712    3.7723   16.1436 H       1  UNL1        0.0000
     23 C           5.7068    7.0623   12.8396 C.ar    1  UNL1        0.0000
     24 C          -1.5483    7.8552   12.9398 C.ar    1  UNL1        0.0000
     25 H          -2.4825    8.1056   12.4567 H       1  UNL1        0.0000
     26 C           5.3757    6.5012   10.5265 C.ar    1  UNL1        0.0000
     27 H           4.7146    6.3971    9.6779 H       1  UNL1        0.0000
     28 C           3.6797    7.7005   18.7788 C.ar    1  UNL1        0.0000
     29 C           6.7371    4.0187   14.0638 C.ar    1  UNL1        0.0000
     30 H           7.0952    4.5031   14.9720 H       1  UNL1        0.0000
     31 C           7.1452    2.8690   12.0067 C.ar    1  UNL1        0.0000
     32 H           7.8345    2.4362   11.2966 H       1  UNL1        0.0000
     33 C           7.5692    6.3554   11.4807 C.ar    1  UNL1        0.0000
     34 H           8.6224    6.1375   11.3787 H       1  UNL1        0.0000
     35 C           7.6242    3.4584   13.1650 C.ar    1  UNL1        0.0000
     36 H           8.6867    3.4846   13.3607 H       1  UNL1        0.0000
     37 C           3.7161    3.1743   15.8918 C.ar    1  UNL1        0.0000
     38 C           2.0071    4.8190   19.2333 C.ar    1  UNL1        0.0000
     39 H           1.2474    5.5699   19.0655 H       1  UNL1        0.0000
     40 C           4.8691    6.9319   11.7409 C.ar    1  UNL1        0.0000
     41 H           3.8210    7.1767   11.8232 H       1  UNL1        0.0000
     42 C           5.3686    3.9853   13.8195 C.ar    1  UNL1        0.0000
     43 C           6.0176    9.8453   15.8360 C.ar    1  UNL1        0.0000
     44 H           5.6939    9.3029   16.7142 H       1  UNL1        0.0000
     45 C           2.1733    6.7045   16.5282 C.3     1  UNL1        0.0000
     46 H           1.4612    5.9092   16.7685 H       1  UNL1        0.0000
     47 H           1.7655    7.6359   16.9315 H       1  UNL1        0.0000
     48 C           3.8294    7.4637   20.1410 C.ar    1  UNL1        0.0000
     49 H           3.8964    6.4514   20.5110 H       1  UNL1        0.0000
     50 C           0.7530    7.1994   12.8172 C.ar    1  UNL1        0.0000
     51 H           1.5998    6.9344   12.1981 H       1  UNL1        0.0000
     52 C           3.2491    4.9416   18.6209 C.ar    1  UNL1        0.0000
     53 C          -0.2450    7.5437   14.9314 C.ar    1  UNL1        0.0000
     54 H          -0.2099    7.5640   16.0113 H       1  UNL1        0.0000
     55 C           7.8307    7.9617   18.9351 C.2     1  UNL1        0.0000
     56 C           4.2283    3.9870   18.8638 C.ar    1  UNL1        0.0000
     57 H           5.1922    4.0924   18.3790 H       1  UNL1        0.0000
     58 C           3.8195    9.8262   20.5720 C.ar    1  UNL1        0.0000
     59 H           3.8732   10.6491   21.2694 H       1  UNL1        0.0000
     60 C          -1.4442    7.8650   14.3184 C.ar    1  UNL1        0.0000
     61 H          -2.3041    8.1251   14.9220 H       1  UNL1        0.0000
     62 C           4.8936    3.3832   12.6622 C.ar    1  UNL1        0.0000
     63 H           3.8302    3.3454   12.4721 H       1  UNL1        0.0000
     64 C           2.8242    5.3745   14.2279 C.3     1  UNL1        0.0000
     65 H           3.1459    5.5321   13.1958 H       1  UNL1        0.0000
     66 H           2.0352    4.6181   14.2092 H       1  UNL1        0.0000
     67 C           6.3665    9.9262   13.4649 C.ar    1  UNL1        0.0000
     68 H           6.3117    9.4651   12.4891 H       1  UNL1        0.0000
     69 C           6.5002   11.1349   15.9576 C.ar    1  UNL1        0.0000
     70 H           6.5537   11.5998   16.9316 H       1  UNL1        0.0000
     71 C          -0.4362    7.5178   12.1886 C.ar    1  UNL1        0.0000
     72 H          -0.4985    7.5025   11.1083 H       1  UNL1        0.0000
     73 C           1.7492    3.7438   20.0629 C.ar    1  UNL1        0.0000
     74 H           0.7822    3.6488   20.5355 H       1  UNL1        0.0000
     75 C           2.7283    2.7907   20.2941 C.ar    1  UNL1        0.0000
     76 H           2.5214    1.9516   20.9421 H       1  UNL1        0.0000
     77 C           3.8836    8.5216   21.0304 C.ar    1  UNL1        0.0000
     78 H           3.9803    8.3233   22.0873 H       1  UNL1        0.0000
     79 C           7.3187    7.4618   20.2180 C.ar    1  UNL1        0.0000
     80 C           5.7831    2.8341   11.7566 C.ar    1  UNL1        0.0000
     81 H           5.4133    2.3727   10.8522 H       1  UNL1        0.0000
     82 C           4.6473    2.1708   16.1477 C.ar    1  UNL1        0.0000
     83 H           5.6738    2.2998   15.8311 H       1  UNL1        0.0000
     84 C           6.3556    6.4835   22.6438 C.ar    1  UNL1        0.0000
     85 H           5.9897    6.1038   23.5864 H       1  UNL1        0.0000
     86 C           4.2698    1.0124   16.7992 C.ar    1  UNL1        0.0000
     87 H           5.0000    0.2378   16.9852 H       1  UNL1        0.0000
     88 C           6.7619    7.8039   22.5349 C.ar    1  UNL1        0.0000
     89 H           6.7065    8.4581   23.3933 H       1  UNL1        0.0000
     90 C           7.2317    8.2960   21.3328 C.ar    1  UNL1        0.0000
     91 H           7.5183    9.3336   21.2478 H       1  UNL1        0.0000
     92 C           6.8840    6.1415   20.3315 C.ar    1  UNL1        0.0000
     93 H           6.9345    5.4888   19.4720 H       1  UNL1        0.0000
     94 C           6.8588   11.2133   13.5896 C.ar    1  UNL1        0.0000
     95 H           7.1878   11.7466   12.7092 H       1  UNL1        0.0000
     96 C           6.4096    5.6566   21.5339 C.ar    1  UNL1        0.0000
     97 H           6.0806    4.6296   21.6054 H       1  UNL1        0.0000
     98 C           2.9596    0.8449   17.2162 C.ar    1  UNL1        0.0000
     99 H           2.6645   -0.0593   17.7279 H       1  UNL1        0.0000
    100 C           2.0306    1.8425   16.9767 C.ar    1  UNL1        0.0000
    101 H           1.0084    1.7196   17.3042 H       1  UNL1        0.0000
    102 C           9.1207    9.6340   17.6491 C.ar    1  UNL1        0.0000
    103 H           8.4477    9.4754   16.8192 H       1  UNL1        0.0000
    104 C           8.9224    8.9214   18.8365 C.ar    1  UNL1        0.0000
    105 C           6.9270   11.8210   14.8323 C.ar    1  UNL1        0.0000
    106 H           7.3113   12.8262   14.9239 H       1  UNL1        0.0000
    107 C           9.8243    9.1169   19.8857 C.ar    1  UNL1        0.0000
    108 H           9.7257    8.5383   20.7922 H       1  UNL1        0.0000
    109 C           6.7216    6.2091   10.3938 C.ar    1  UNL1        0.0000
    110 H           7.1115    5.8721    9.4447 H       1  UNL1        0.0000
    111 C          10.1562   10.5379   17.5324 C.ar    1  UNL1        0.0000
    112 H          10.2841   11.0848   16.6093 H       1  UNL1        0.0000
    113 C          11.0258   10.7458   18.5914 C.ar    1  UNL1        0.0000
    114 H          11.8332   11.4572   18.5020 H       1  UNL1        0.0000
    115 C          10.8592   10.0232   19.7619 C.ar    1  UNL1        0.0000
    116 H          11.5467   10.1625   20.5838 H       1  UNL1        0.0000
@<TRIPOS>BOND
     1   110   109    1
     2    27    26    1
     3   109    26   ar
     4   109    33   ar
     5    26    40   ar
     6    81    80    1
     7    72    71    1
     8    32    31    1
     9    34    33    1
    10    33    17   ar
    11    40    41    1
    12    40    23   ar
    13    80    31   ar
    14    80    62   ar
    15    31    35   ar
    16    71    50   ar
    17    71    24   ar
    18    51    50    1
    19    25    24    1
    20    63    62    1
    21    68    67    1
    22    62    42   ar
    23    17    23   ar
    24    17    18    1
    25    95    94    1
    26    50    11   ar
    27    23     4    1
    28    24    60   ar
    29    35    36    1
    30    35    29   ar
    31    65    64    1
    32    67    94   ar
    33    67    16   ar
    34    10     8    1
    35    94   105   ar
    36    42    29   ar
    37    42     2    1
    38    29    30    1
    39    11     7    1
    40    11    53   ar
    41    66    64    1
    42    64     7    1
    43    64     2    1
    44    60    61    1
    45    60    53   ar
    46     8     4    1
    47     8     7    1
    48     8     9    1
    49     4    16    1
    50     4     1    1
    51    16    43   ar
    52   105   106    1
    53   105    69   ar
    54     7    45    1
    55    53    54    1
    56     2    37    1
    57     2     1    1
    58    83    82    1
    59    43    69   ar
    60    43    44    1
    61    37    82   ar
    62    37    21   ar
    63    69    70    1
    64    22    21    1
    65    82    86   ar
    66     1     5    1
    67     1     3    1
    68    21   100   ar
    69    45    46    1
    70    45    47    1
    71    45     3    1
    72   112   111    1
    73    86    87    1
    74    86    98   ar
    75   103   102    1
    76   100    98   ar
    77   100   101    1
    78     5     6    1
    79    98    99    1
    80    13    12    1
    81   111   102   ar
    82   111   113   ar
    83     3    52    1
    84     3    28    1
    85   102   104   ar
    86     6    55    2
    87    12    28   ar
    88    12    19   ar
    89    57    56    1
    90   114   113    1
    91   113   115   ar
    92    52    56   ar
    93    52    38   ar
    94    28    48   ar
    95   104    55    1
    96   104   107   ar
    97    20    19    1
    98    56    14   ar
    99    55    79    1
   100    39    38    1
   101    19    58   ar
   102    38    73   ar
   103    93    92    1
   104    14    15    1
   105    14    75   ar
   106   115   107   ar
   107   115   116    1
   108   107   108    1
   109    73    75   ar
   110    73    74    1
   111    48    49    1
   112    48    77   ar
   113    79    92   ar
   114    79    90   ar
   115    75    76    1
   116    92    96   ar
   117    58    77   ar
   118    58    59    1
   119    77    78    1
   120    91    90    1
   121    90    88   ar
   122    96    97    1
   123    96    84   ar
   124    88    84   ar
   125    88    89    1
   126    84    85    1
