@<TRIPOS>MOLECULE
CSD_code = LUXKIY | q = 0 | S = 0 | Stoichiometry = C9H15CoN6 | MND = 6
 31 33 0 0 0
SMALL
GASTEIGER

@<TRIPOS>ATOM
      1 CO          0.1674    2.3093    1.4427 Co.oh   1  UNL1        0.0000
      2 C          -0.9186    1.0041    2.1211 C.1     1  UNL1        0.0000
      3 N          -1.3991    0.0872    2.6193 N.1     1  UNL1        0.0000
      4 C          -0.7616    2.3094   -0.1322 C.1     1  UNL1        0.0000
      5 N          -1.1395    2.3092   -1.2172 N.1     1  UNL1        0.0000
      6 N           1.4954    0.8532    0.6941 N.4     1  UNL1        0.0000
      7 H           1.2047   -0.0373    1.0994 H       1  UNL1        0.0000
      8 H           1.3062    0.7766   -0.3059 H       1  UNL1        0.0000
      9 N           1.3151    2.3093    3.2112 N.4     1  UNL1        0.0000
     10 H           1.0151    3.1228    3.7496 H       1  UNL1        0.0000
     11 H           1.0151    1.4957    3.7496 H       1  UNL1        0.0000
     12 C           2.9355    1.0300    0.9004 C.3     1  UNL1        0.0000
     13 H           3.4792    0.1820    0.4487 H       1  UNL1        0.0000
     14 C           3.2708    1.0492    2.3943 C.3     1  UNL1        0.0000
     15 H           4.3548    0.9896    2.5064 H       1  UNL1        0.0000
     16 H           2.8387    0.1672    2.8739 H       1  UNL1        0.0000
     17 C           2.7770    2.3092    3.1107 C.3     1  UNL1        0.0000
     18 H           3.2161    2.3092    4.1236 H       1  UNL1        0.0000
     19 C           3.4277    2.3093    0.2181 C.3     1  UNL1        0.0000
     20 H           3.1066    2.3093   -0.8267 H       1  UNL1        0.0000
     21 H           4.5192    2.3093    0.2290 H       1  UNL1        0.0000
     22 C          -0.9190    3.6143    2.1208 C.1     1  UNL1        0.0000
     23 N          -1.3998    4.5313    2.6187 N.1     1  UNL1        0.0000
     24 N           1.4955    3.7654    0.6942 N.4     1  UNL1        0.0000
     25 H           1.2048    4.6559    1.0995 H       1  UNL1        0.0000
     26 H           1.3062    3.8420   -0.3058 H       1  UNL1        0.0000
     27 C           2.9355    3.5885    0.9004 C.3     1  UNL1        0.0000
     28 H           3.4793    4.4365    0.4488 H       1  UNL1        0.0000
     29 C           3.2708    3.5692    2.3943 C.3     1  UNL1        0.0000
     30 H           4.3549    3.6288    2.5065 H       1  UNL1        0.0000
     31 H           2.8389    4.4513    2.8740 H       1  UNL1        0.0000
@<TRIPOS>BOND
     1     5     4    3
     2    20    19    1
     3     8     6    1
     4    26    24    1
     5     4     1    1
     6    19    21    1
     7    19    12    1
     8    19    27    1
     9    13    12    1
    10    28    27    1
    11     6    12    1
    12     6     7    1
    13     6     1    1
    14    24    27    1
    15    24    25    1
    16    24     1    1
    17    12    14    1
    18    27    29    1
    19     1    22    1
    20     1     2    1
    21     1     9    1
    22    22    23    3
    23     2     3    3
    24    14    15    1
    25    14    16    1
    26    14    17    1
    27    29    30    1
    28    29    31    1
    29    29    17    1
    30    17     9    1
    31    17    18    1
    32     9    11    1
    33     9    10    1
