@<TRIPOS>MOLECULE
CSD_code = MAKPOD | q = 1 | S = 0 | Stoichiometry = C5H17Br2CoN3O(1+) | MND = 6
 29 29 0 0 0
SMALL
GASTEIGER

@<TRIPOS>ATOM
      1 CO          8.3719    4.1825   12.1064 Co.oh   1  UNL1        0.0000
      2 BR         10.2409    2.6820   11.8484 Br      1  UNL1        0.0000
      3 BR          6.5301    5.7100   12.6163 Br      1  UNL1        0.0000
      4 N           9.6434    5.7100   12.2810 N.4     1  UNL1        0.0000
      5 H           9.4542    6.3230   13.0760 H       1  UNL1        0.0000
      6 H          10.5911    5.3418   12.4032 H       1  UNL1        0.0000
      7 N           8.2829    4.6417   10.2205 N.4     1  UNL1        0.0000
      8 H           7.4459    5.2342   10.1770 H       1  UNL1        0.0000
      9 N           7.0968    2.6854   11.9499 N.4     1  UNL1        0.0000
     10 H           7.2966    2.0629   12.7374 H       1  UNL1        0.0000
     11 H           6.1624    3.0705   12.1186 H       1  UNL1        0.0000
     12 O           8.4468    3.7592   14.1420 O.3     2  HOH2        0.0000
     13 C           9.5959    6.4986   11.0387 C.3     1  UNL1        0.0000
     14 H          10.4980    7.1011   10.9046 H       1  UNL1        0.0000
     15 H           8.7311    7.1660   11.0782 H       1  UNL1        0.0000
     16 C           9.4348    5.5030    9.8975 C.3     1  UNL1        0.0000
     17 H          10.3257    4.8747    9.8160 H       1  UNL1        0.0000
     18 H           9.2794    6.0176    8.9448 H       1  UNL1        0.0000
     19 C           8.1041    3.5838    9.2170 C.3     1  UNL1        0.0000
     20 H           8.9936    2.9498    9.2136 H       1  UNL1        0.0000
     21 H           8.0109    4.0484    8.2294 H       1  UNL1        0.0000
     22 C           6.8657    2.7382    9.4931 C.3     1  UNL1        0.0000
     23 H           6.6908    2.0920    8.6340 H       1  UNL1        0.0000
     24 H           5.9898    3.3802    9.6117 H       1  UNL1        0.0000
     25 C           7.0450    1.8657   10.7301 C.3     1  UNL1        0.0000
     26 H           6.2146    1.1561   10.7985 H       1  UNL1        0.0000
     27 H           7.9746    1.2987   10.6478 H       1  UNL1        0.0000
     28 H           9.2287    3.3748   14.5598 H       0  HOH0        0.0000
     29 H           7.9808    4.3069   14.7869 H       0  HOH0        0.0000
@<TRIPOS>BOND
     1    21    19    1
     2    23    22    1
     3    18    16    1
     4    20    19    1
     5    19    22    1
     6    19     7    1
     7    22    24    1
     8    22    25    1
     9    17    16    1
    10    16     7    1
    11    16    13    1
    12     8     7    1
    13     7     1    1
    14    27    25    1
    15    25    26    1
    16    25     9    1
    17    14    13    1
    18    13    15    1
    19    13     4    1
    20     2     1    1
    21     9     1    1
    22     9    11    1
    23     9    10    1
    24     1     4    1
    25     1     3    1
    26     4     6    1
    27     4     5    1
    28    12    28    1
    29    12    29    1
