@<TRIPOS>MOLECULE
CSD_code = MIYJAG | q = 1 | S = 0 | Stoichiometry = C26H22CoN8S2(1+) | MND = 6
 59 66 0 0 0
SMALL
GASTEIGER

@<TRIPOS>ATOM
      1 CO          5.4487   11.4468    8.5490 Co.oh   1  UNL1        0.0000
      2 S           6.3970    9.9883   10.0250 S.3     1  UNL1        0.0000
      3 S           4.5011    9.7168    7.4026 S.3     1  UNL1        0.0000
      4 C           5.0792   10.1402   11.1319 C.2     1  UNL1        0.0000
      5 C           3.0527   12.3164    9.3864 C.2     1  UNL1        0.0000
      6 C           1.8670   12.5319   10.2265 C.ar    1  UNL1        0.0000
      7 C           1.1770   11.4448   10.7576 C.ar    1  UNL1        0.0000
      8 H           1.5076   10.4436   10.5301 H       1  UNL1        0.0000
      9 C           0.0638   11.6515   11.5504 C.ar    1  UNL1        0.0000
     10 H          -0.4736   10.8048   11.9491 H       1  UNL1        0.0000
     11 C          -0.3625   12.9391   11.8331 C.ar    1  UNL1        0.0000
     12 H          -1.2300   13.0976   12.4548 H       1  UNL1        0.0000
     13 C           0.3294   14.0245   11.3206 C.ar    1  UNL1        0.0000
     14 H           0.0065   15.0291   11.5477 H       1  UNL1        0.0000
     15 C           1.4377   13.8262   10.5182 C.ar    1  UNL1        0.0000
     16 H           1.9893   14.6746   10.1381 H       1  UNL1        0.0000
     17 C           3.2272   12.9312    8.0932 C.2     1  UNL1        0.0000
     18 C           2.2507   13.6990    7.4514 C.2     1  UNL1        0.0000
     19 H           1.3011   13.8558    7.9365 H       1  UNL1        0.0000
     20 C           2.5141   14.2209    6.2023 C.2     1  UNL1        0.0000
     21 H           1.7727   14.8110    5.6872 H       1  UNL1        0.0000
     22 C           3.7481   13.9655    5.6151 C.2     1  UNL1        0.0000
     23 H           3.9970   14.3561    4.6424 H       1  UNL1        0.0000
     24 C           4.6589   13.1775    6.2932 C.2     1  UNL1        0.0000
     25 H           5.6160   12.9458    5.8458 H       1  UNL1        0.0000
     26 C           5.8187    9.6402    6.2876 C.2     1  UNL1        0.0000
     27 C           7.8448   12.1272    7.5520 C.2     1  UNL1        0.0000
     28 C           9.0310   12.1655    6.6863 C.ar    1  UNL1        0.0000
     29 C           9.4624   13.3723    6.1368 C.ar    1  UNL1        0.0000
     30 H           8.9122   14.2813    6.3354 H       1  UNL1        0.0000
     31 C          10.5710   13.4009    5.3112 C.ar    1  UNL1        0.0000
     32 H          10.8958   14.3375    4.8842 H       1  UNL1        0.0000
     33 C          11.2612   12.2327    5.0311 C.ar    1  UNL1        0.0000
     34 H          12.1290   12.2596    4.3905 H       1  UNL1        0.0000
     35 C          10.8328   11.0306    5.5704 C.ar    1  UNL1        0.0000
     36 H          11.3686   10.1195    5.3529 H       1  UNL1        0.0000
     37 C           9.7193   10.9918    6.3884 C.ar    1  UNL1        0.0000
     38 H           9.3870   10.0586    6.8152 H       1  UNL1        0.0000
     39 C           7.6700   12.9936    8.6920 C.2     1  UNL1        0.0000
     40 C           6.2374   13.6036   10.4026 C.2     1  UNL1        0.0000
     41 H           5.2800   13.4686   10.8875 H       1  UNL1        0.0000
     42 C           7.1480   14.5136   10.9055 C.2     1  UNL1        0.0000
     43 H           6.8987   15.0953   11.7773 H       1  UNL1        0.0000
     44 C           8.3825   14.6429   10.2793 C.2     1  UNL1        0.0000
     45 H           9.1238   15.3260   10.6631 H       1  UNL1        0.0000
     46 C           8.6464   13.8762    9.1637 C.2     1  UNL1        0.0000
     47 H           9.5963   13.9302    8.6573 H       1  UNL1        0.0000
     48 N           5.1369    9.4634   12.2802 N.pl3   1  UNL1        0.0000
     49 H           4.3582    9.4967   12.9161 H       1  UNL1        0.0000
     50 H           5.9004    8.8330   12.4535 H       1  UNL1        0.0000
     51 N           4.0395   10.9010   10.8867 N.2     1  UNL1        0.0000
     52 N           4.0486   11.5452    9.7361 N.pl3   1  UNL1        0.0000
     53 N           4.4100   12.6656    7.4949 N.pl3   1  UNL1        0.0000
     54 N           5.7615    8.7432    5.3017 N.pl3   1  UNL1        0.0000
     55 H           6.5401    8.6468    4.6721 H       1  UNL1        0.0000
     56 H           4.9979    8.0908    5.2600 H       1  UNL1        0.0000
     57 N           6.8581   10.4354    6.3722 N.2     1  UNL1        0.0000
     58 N           6.8488   11.3010    7.3670 N.pl3   1  UNL1        0.0000
     59 N           6.4868   12.8563    9.3315 N.pl3   1  UNL1        0.0000
@<TRIPOS>BOND
     1    34    33    1
     2    23    22    1
     3    55    54    1
     4    32    31    1
     5    33    31   ar
     6    33    35   ar
     7    56    54    1
     8    54    26    1
     9    31    29   ar
    10    36    35    1
    11    35    37   ar
    12    22    20    1
    13    22    24    2
    14    21    20    1
    15    25    24    1
    16    29    30    1
    17    29    28   ar
    18    20    18    2
    19    26    57    2
    20    26     3    1
    21    24    53    1
    22    57    58    1
    23    37    28   ar
    24    37    38    1
    25    28    27    1
    26    58    27    1
    27    58     1    1
    28     3     1    1
    29    18    19    1
    30    18    17    1
    31    53    17    1
    32    53     1    1
    33    27    39    2
    34    17     5    2
    35     1    59    1
    36     1    52    1
    37     1     2    1
    38    47    46    1
    39    39    46    1
    40    39    59    1
    41    46    44    2
    42    59    40    1
    43     5    52    1
    44     5     6    1
    45    52    51    1
    46     2     4    1
    47    16    15    1
    48     6    15   ar
    49     6     7   ar
    50    44    45    1
    51    44    42    1
    52    40    41    1
    53    40    42    2
    54    15    13   ar
    55     8     7    1
    56     7     9   ar
    57    51     4    2
    58    42    43    1
    59     4    48    1
    60    13    14    1
    61    13    11   ar
    62     9    11   ar
    63     9    10    1
    64    11    12    1
    65    48    50    1
    66    48    49    1
