@<TRIPOS>MOLECULE
CSD_code = MOBFIS | q = 1 | S = 0 | Stoichiometry = C10H18CoN4O4(1+) | MND = 6
 37 40 0 0 0
SMALL
GASTEIGER

@<TRIPOS>ATOM
      1 CO          4.2721   14.7943    6.9376 Co.oh   1  UNL1        0.0000
      2 O           4.1146   15.1001    8.7588 O.3     1  UNL1        0.0000
      3 N           2.2834   15.1499    6.8263 N.4     1  UNL1        0.0000
      4 H           1.6220   14.4658    6.4601 H       1  UNL1        0.0000
      5 H           2.0279   15.2982    7.8070 H       1  UNL1        0.0000
      6 O           4.1300   14.0070   10.6949 O.2     1  UNL1        0.0000
      7 O           7.8270   16.2511    7.0296 O.2     1  UNL1        0.0000
      8 O           6.1219   14.8240    7.0352 O.3     1  UNL1        0.0000
      9 C           3.2064   17.3881    6.5867 C.3     1  UNL1        0.0000
     10 H           3.3073   18.2405    5.9081 H       1  UNL1        0.0000
     11 H           2.9824   17.7675    7.5901 H       1  UNL1        0.0000
     12 C           6.6521   16.0002    7.0001 C.2     1  UNL1        0.0000
     13 N           4.2586   13.0047    7.4055 N.3     1  UNL1        0.0000
     14 C           5.5881   17.1031    6.8614 C.3     1  UNL1        0.0000
     15 N           4.4790   14.1105    5.0488 N.4     1  UNL1        0.0000
     16 H           3.6049   14.0054    4.5319 H       1  UNL1        0.0000
     17 H           5.0931   14.6829    4.4695 H       1  UNL1        0.0000
     18 C           4.2103   14.0441    9.4967 C.2     1  UNL1        0.0000
     19 C           5.1059   12.7755    5.1953 C.3     1  UNL1        0.0000
     20 H           6.1520   12.9302    5.4659 H       1  UNL1        0.0000
     21 H           5.0520   12.2016    4.2661 H       1  UNL1        0.0000
     22 C           2.1047   16.4361    6.1183 C.3     1  UNL1        0.0000
     23 H           2.2018   16.2606    5.0439 H       1  UNL1        0.0000
     24 H           1.1171   16.8661    6.3112 H       1  UNL1        0.0000
     25 N           4.4262   16.6158    6.6539 N.3     1  UNL1        0.0000
     26 C           4.4110   12.0363    6.3412 C.3     1  UNL1        0.0000
     27 H           3.4158   11.6926    6.0355 H       1  UNL1        0.0000
     28 H           5.0025   11.1731    6.6550 H       1  UNL1        0.0000
     29 C           5.9721   18.5186    6.9831 C.3     1  UNL1        0.0000
     30 H           5.5070   19.1365    6.2157 H       1  UNL1        0.0000
     31 H           7.0567   18.5962    6.9303 H       1  UNL1        0.0000
     32 H           5.6461   18.8957    7.9544 H       1  UNL1        0.0000
     33 C           4.6028   11.4764    9.3287 C.3     1  UNL1        0.0000
     34 H           4.0077   10.6719    8.9007 H       1  UNL1        0.0000
     35 H           4.3783   11.5950   10.3880 H       1  UNL1        0.0000
     36 H           5.6572   11.2074    9.2382 H       1  UNL1        0.0000
     37 C           4.3734   12.7655    8.6535 C.3     1  UNL1        0.0000
@<TRIPOS>BOND
     1    21    19    1
     2    17    15    1
     3    16    15    1
     4    23    22    1
     5    15    19    1
     6    15     1    1
     7    19    20    1
     8    19    26    1
     9    10     9    1
    10    27    26    1
    11    22    24    1
    12    22     9    1
    13    22     3    1
    14    30    29    1
    15    26    28    1
    16    26    13    1
    17     4     3    1
    18     9    25    1
    19     9    11    1
    20    25    14    1
    21    25     1    1
    22     3     1    1
    23     3     5    1
    24    14    29    1
    25    14    12    1
    26    31    29    1
    27     1     8    1
    28     1    13    1
    29     1     2    1
    30    29    32    1
    31    12     7    2
    32    12     8    1
    33    13    37    1
    34    37    33    1
    35    37    18    1
    36     2    18    1
    37    34    33    1
    38    36    33    1
    39    33    35    1
    40    18     6    2
