@<TRIPOS>MOLECULE
CSD_code = MUFKAZ | q = -1 | S = 0 | Stoichiometry = C28H26CoN2O6(1-) | MND = 6
 63 70 0 0 0
SMALL
GASTEIGER

@<TRIPOS>ATOM
      1 CO         10.1300    0.0001   -0.0000 Co.oh   1  UNL1        0.0000
      2 N          10.9442   -0.2323    1.8091 N.4     1  UNL1        0.0000
      3 O           8.4112   -0.5849    0.6145 O.3     1  UNL1        0.0000
      4 O          10.7298   -1.7740   -0.2630 O.3     1  UNL1        0.0000
      5 O          12.1514   -3.2976    0.5078 O.2     1  UNL1        0.0000
      6 C           8.7191   -0.2006    2.9199 C.ar    1  UNL1        0.0000
      7 C           7.9545   -0.1433    1.7464 C.ar    1  UNL1        0.0000
      8 C           6.6295    0.3752    1.8275 C.ar    1  UNL1        0.0000
      9 H           6.0296    0.3833    0.9287 H       1  UNL1        0.0000
     10 C           6.1375    0.8546    2.9997 C.ar    1  UNL1        0.0000
     11 H           5.1318    1.2524    3.0469 H       1  UNL1        0.0000
     12 C           6.9189    0.8662    4.1752 C.ar    1  UNL1        0.0000
     13 C           6.4160    1.3902    5.3787 C.ar    1  UNL1        0.0000
     14 H           5.4110    1.7920    5.3840 H       1  UNL1        0.0000
     15 C           7.1700    1.3996    6.5202 C.ar    1  UNL1        0.0000
     16 H           6.7752    1.8056    7.4414 H       1  UNL1        0.0000
     17 C           8.4704    0.8788    6.4890 C.ar    1  UNL1        0.0000
     18 H           9.0690    0.8935    7.3905 H       1  UNL1        0.0000
     19 C           8.9870    0.3586    5.3355 C.ar    1  UNL1        0.0000
     20 H           9.9962   -0.0266    5.3492 H       1  UNL1        0.0000
     21 C           8.2394    0.3269    4.1336 C.ar    1  UNL1        0.0000
     22 C          10.0325   -0.9062    2.7571 C.3     1  UNL1        0.0000
     23 H           9.8303   -1.9024    2.3444 H       1  UNL1        0.0000
     24 H          10.5513   -1.0306    3.7149 H       1  UNL1        0.0000
     25 C          11.6337   -2.1941    0.5250 C.2     1  UNL1        0.0000
     26 C          12.0754   -1.1378    1.5753 C.3     1  UNL1        0.0000
     27 H          12.4174   -1.6153    2.5021 H       1  UNL1        0.0000
     28 H          12.9006   -0.5775    1.1345 H       1  UNL1        0.0000
     29 C          11.4005    1.0272    2.3928 C.3     1  UNL1        0.0000
     30 H          11.9686    0.8414    3.3129 H       1  UNL1        0.0000
     31 H          10.5365    1.6505    2.6155 H       1  UNL1        0.0000
     32 H          12.0235    1.5465    1.6687 H       1  UNL1        0.0000
     33 N           9.3159    0.2324   -1.8091 N.4     1  UNL1        0.0000
     34 C          10.2275    0.9062   -2.7571 C.3     1  UNL1        0.0000
     35 C          11.5409    0.2007   -2.9199 C.ar    1  UNL1        0.0000
     36 C          12.3056    0.1433   -1.7464 C.ar    1  UNL1        0.0000
     37 O          11.8488    0.5850   -0.6145 O.3     1  UNL1        0.0000
     38 O           9.5303    1.7742    0.2629 O.3     1  UNL1        0.0000
     39 C           8.6264    2.1942   -0.5250 C.2     1  UNL1        0.0000
     40 O           8.1087    3.2977   -0.5078 O.2     1  UNL1        0.0000
     41 C           8.1847    1.1380   -1.5753 C.3     1  UNL1        0.0000
     42 C           8.8595   -1.0271   -2.3928 C.3     1  UNL1        0.0000
     43 H           8.2914   -0.8413   -3.3129 H       1  UNL1        0.0000
     44 H           9.7234   -1.6504   -2.6154 H       1  UNL1        0.0000
     45 H           8.2364   -1.5463   -1.6687 H       1  UNL1        0.0000
     46 H           7.8426    1.6154   -2.5021 H       1  UNL1        0.0000
     47 H           7.3594    0.5777   -1.1345 H       1  UNL1        0.0000
     48 C          13.6305   -0.3752   -1.8275 C.ar    1  UNL1        0.0000
     49 H          14.2305   -0.3832   -0.9288 H       1  UNL1        0.0000
     50 C          14.1225   -0.8546   -2.9997 C.ar    1  UNL1        0.0000
     51 H          15.1281   -1.2524   -3.0469 H       1  UNL1        0.0000
     52 C          13.3410   -0.8662   -4.1752 C.ar    1  UNL1        0.0000
     53 C          13.8439   -1.3903   -5.3787 C.ar    1  UNL1        0.0000
     54 H          14.8489   -1.7922   -5.3840 H       1  UNL1        0.0000
     55 C          13.0899   -1.3998   -6.5202 C.ar    1  UNL1        0.0000
     56 H          13.4847   -1.8059   -7.4414 H       1  UNL1        0.0000
     57 C          11.7895   -0.8790   -6.4889 C.ar    1  UNL1        0.0000
     58 H          11.1909   -0.8937   -7.3904 H       1  UNL1        0.0000
     59 C          11.2729   -0.3587   -5.3355 C.ar    1  UNL1        0.0000
     60 H          10.2638    0.0265   -5.3492 H       1  UNL1        0.0000
     61 C          12.0206   -0.3270   -4.1336 C.ar    1  UNL1        0.0000
     62 H          10.4297    1.9024   -2.3445 H       1  UNL1        0.0000
     63 H           9.7087    1.0306   -3.7149 H       1  UNL1        0.0000
@<TRIPOS>BOND
     1    56    55    1
     2    58    57    1
     3    55    57   ar
     4    55    53   ar
     5    57    59   ar
     6    54    53    1
     7    53    52   ar
     8    60    59    1
     9    59    61   ar
    10    52    61   ar
    11    52    50   ar
    12    61    35   ar
    13    63    34    1
    14    43    42    1
    15    51    50    1
    16    50    48   ar
    17    35    34    1
    18    35    36   ar
    19    34    62    1
    20    34    33    1
    21    44    42    1
    22    46    41    1
    23    42    33    1
    24    42    45    1
    25    48    36   ar
    26    48    49    1
    27    33    41    1
    28    33     1    1
    29    36    37    1
    30    41    47    1
    31    41    39    1
    32    37     1    1
    33    39    40    2
    34    39    38    1
    35     4     1    1
    36     4    25    1
    37     1    38    1
    38     1     3    1
    39     1     2    1
    40     5    25    2
    41    25    26    1
    42     3     7    1
    43     9     8    1
    44    28    26    1
    45    26     2    1
    46    26    27    1
    47    32    29    1
    48     7     8   ar
    49     7     6   ar
    50     2    29    1
    51     2    22    1
    52     8    10   ar
    53    23    22    1
    54    29    31    1
    55    29    30    1
    56    22     6    1
    57    22    24    1
    58     6    21   ar
    59    10    11    1
    60    10    12   ar
    61    21    12   ar
    62    21    19   ar
    63    12    13   ar
    64    19    20    1
    65    19    17   ar
    66    13    14    1
    67    13    15   ar
    68    17    15   ar
    69    17    18    1
    70    15    16    1
