@<TRIPOS>MOLECULE
CSD_code = NABFUR | q = 1 | S = 0 | Stoichiometry = C48H45CoN2OP3(1+) | MND = 5
 100 109 0 0 0
SMALL
GASTEIGER

@<TRIPOS>ATOM
      1 CO          2.0071    0.6199   25.0425 Co.oh   1  UNL1        0.0000
      2 P           2.4998   -1.4712   24.3547 P.3     1  UNL1        0.0000
      3 P           3.9971    0.7187   25.9478 P.3     1  UNL1        0.0000
      4 P           2.7912    1.1825   23.0451 P.3     1  UNL1        0.0000
      5 N           0.0534    2.0926   26.0969 N.2     1  UNL1        0.0000
      6 N           1.3336    1.7759   26.1875 N.pl3   1  UNL1        0.0000
      7 H           1.7767    2.3759   26.8895 H       1  UNL1        0.0000
      8 O           0.2122    0.5348   24.5077 O.2     1  UNL1        0.0000
      9 C          -0.5199    1.3859   25.1336 C.2     1  UNL1        0.0000
     10 C           4.3145   -1.7061   24.1413 C.3     1  UNL1        0.0000
     11 H           4.7230   -1.9445   25.1292 H       1  UNL1        0.0000
     12 H           4.4921   -2.5675   23.4934 H       1  UNL1        0.0000
     13 C           5.3327    0.5464   24.6946 C.3     1  UNL1        0.0000
     14 H           5.4689    1.5309   24.2355 H       1  UNL1        0.0000
     15 H           6.2585    0.2840   25.2159 H       1  UNL1        0.0000
     16 C           4.2249    0.1809   22.4522 C.3     1  UNL1        0.0000
     17 H           3.8433   -0.6056   21.7972 H       1  UNL1        0.0000
     18 H           4.8722    0.8387   21.8637 H       1  UNL1        0.0000
     19 C           5.0408   -0.4724   23.5805 C.3     1  UNL1        0.0000
     20 C           6.3830   -0.9295   22.9916 C.3     1  UNL1        0.0000
     21 H           6.9459   -1.5061   23.7228 H       1  UNL1        0.0000
     22 H           6.9850   -0.0731   22.6951 H       1  UNL1        0.0000
     23 H           6.2274   -1.5530   22.1136 H       1  UNL1        0.0000
     24 C           0.3550   -1.9372   22.7129 C.ar    1  UNL1        0.0000
     25 C          -0.3377   -2.4263   21.6224 C.ar    1  UNL1        0.0000
     26 C           0.3321   -3.1294   20.6349 C.ar    1  UNL1        0.0000
     27 C           1.6941   -3.3459   20.7525 C.ar    1  UNL1        0.0000
     28 C           2.3923   -2.8562   21.8432 C.ar    1  UNL1        0.0000
     29 C           1.7293   -2.1347   22.8312 C.ar    1  UNL1        0.0000
     30 H          -0.1643   -1.3833   23.4792 H       1  UNL1        0.0000
     31 H          -1.4016   -2.2608   21.5424 H       1  UNL1        0.0000
     32 H          -0.2040   -3.5129   19.7806 H       1  UNL1        0.0000
     33 H           2.2211   -3.9030   19.9919 H       1  UNL1        0.0000
     34 H           3.4531   -3.0531   21.9000 H       1  UNL1        0.0000
     35 C           0.7962   -2.7156   26.1084 C.ar    1  UNL1        0.0000
     36 C           0.3388   -3.7195   26.9401 C.ar    1  UNL1        0.0000
     37 C           1.1129   -4.8509   27.1432 C.ar    1  UNL1        0.0000
     38 C           2.3358   -4.9767   26.5058 C.ar    1  UNL1        0.0000
     39 C           2.7955   -3.9773   25.6661 C.ar    1  UNL1        0.0000
     40 C           2.0289   -2.8346   25.4713 C.ar    1  UNL1        0.0000
     41 H           0.2042   -1.8212   25.9555 H       1  UNL1        0.0000
     42 H          -0.6170   -3.6200   27.4322 H       1  UNL1        0.0000
     43 H           0.7622   -5.6354   27.7963 H       1  UNL1        0.0000
     44 H           2.9358   -5.8609   26.6593 H       1  UNL1        0.0000
     45 H           3.7472   -4.0983   25.1716 H       1  UNL1        0.0000
     46 C           5.3484    3.1861   26.4551 C.ar    1  UNL1        0.0000
     47 C           5.6329    4.2718   27.2658 C.ar    1  UNL1        0.0000
     48 C           5.0791    4.3694   28.5311 C.ar    1  UNL1        0.0000
     49 C           4.2360    3.3712   28.9934 C.ar    1  UNL1        0.0000
     50 C           3.9517    2.2832   28.1907 C.ar    1  UNL1        0.0000
     51 C           4.5097    2.1763   26.9149 C.ar    1  UNL1        0.0000
     52 H           5.7859    3.1430   25.4695 H       1  UNL1        0.0000
     53 H           6.2917    5.0463   26.9032 H       1  UNL1        0.0000
     54 H           5.3037    5.2197   29.1559 H       1  UNL1        0.0000
     55 H           3.8015    3.4403   29.9790 H       1  UNL1        0.0000
     56 H           3.3051    1.4955   28.5568 H       1  UNL1        0.0000
     57 C           3.2249   -1.1801   27.7933 C.ar    1  UNL1        0.0000
     58 C           3.4018   -2.1473   28.7659 C.ar    1  UNL1        0.0000
     59 C           4.6815   -2.5057   29.1541 C.ar    1  UNL1        0.0000
     60 C           5.7802   -1.8777   28.5874 C.ar    1  UNL1        0.0000
     61 C           5.6073   -0.9083   27.6167 C.ar    1  UNL1        0.0000
     62 C           4.3239   -0.5715   27.1960 C.ar    1  UNL1        0.0000
     63 H           2.2271   -0.8809   27.4932 H       1  UNL1        0.0000
     64 H           2.5425   -2.6189   29.2176 H       1  UNL1        0.0000
     65 H           4.8255   -3.2641   29.9078 H       1  UNL1        0.0000
     66 H           6.7770   -2.1405   28.9079 H       1  UNL1        0.0000
     67 H           6.4719   -0.4106   27.2005 H       1  UNL1        0.0000
     68 C           1.5723    0.3368   20.5864 C.ar    1  UNL1        0.0000
     69 C           0.5331    0.4103   19.6739 C.ar    1  UNL1        0.0000
     70 C          -0.5053    1.3056   19.8615 C.ar    1  UNL1        0.0000
     71 C          -0.5006    2.1511   20.9609 C.ar    1  UNL1        0.0000
     72 C           0.5359    2.0868   21.8693 C.ar    1  UNL1        0.0000
     73 C           1.5764    1.1730   21.6949 C.ar    1  UNL1        0.0000
     74 H           2.3645   -0.3760   20.4152 H       1  UNL1        0.0000
     75 H           0.5365   -0.2424   18.8139 H       1  UNL1        0.0000
     76 H          -1.3168    1.3477   19.1514 H       1  UNL1        0.0000
     77 H          -1.3064    2.8535   21.1115 H       1  UNL1        0.0000
     78 H           0.5463    2.7419   22.7321 H       1  UNL1        0.0000
     79 C           3.8839    3.3437   21.6596 C.ar    1  UNL1        0.0000
     80 C           4.3309    4.6446   21.5298 C.ar    1  UNL1        0.0000
     81 C           4.2868    5.5092   22.6139 C.ar    1  UNL1        0.0000
     82 C           3.7821    5.0754   23.8278 C.ar    1  UNL1        0.0000
     83 C           3.3334    3.7727   23.9616 C.ar    1  UNL1        0.0000
     84 C           3.3963    2.8978   22.8862 C.ar    1  UNL1        0.0000
     85 H           3.8976    2.6761   20.8082 H       1  UNL1        0.0000
     86 H           4.7097    4.9889   20.5794 H       1  UNL1        0.0000
     87 H           4.6372    6.5241   22.5062 H       1  UNL1        0.0000
     88 H           3.7337    5.7488   24.6702 H       1  UNL1        0.0000
     89 H           2.9263    3.4284   24.9039 H       1  UNL1        0.0000
     90 C          -2.4425    0.9878   23.6333 C.ar    1  UNL1        0.0000
     91 C          -3.7646    1.1906   23.2901 C.ar    1  UNL1        0.0000
     92 C          -4.5719    1.9967   24.0779 C.ar    1  UNL1        0.0000
     93 C          -4.0530    2.6064   25.2106 C.ar    1  UNL1        0.0000
     94 C          -2.7310    2.4131   25.5602 C.ar    1  UNL1        0.0000
     95 C          -1.9176    1.5974   24.7731 C.ar    1  UNL1        0.0000
     96 H          -1.8012    0.3716   23.0203 H       1  UNL1        0.0000
     97 H          -4.1690    0.7204   22.4061 H       1  UNL1        0.0000
     98 H          -5.6056    2.1517   23.8083 H       1  UNL1        0.0000
     99 H          -4.6839    3.2347   25.8208 H       1  UNL1        0.0000
    100 H          -2.3107    2.8804   26.4364 H       1  UNL1        0.0000
@<TRIPOS>BOND
     1    75    69    1
     2    76    70    1
     3    69    70   ar
     4    69    68   ar
     5    32    26    1
     6    70    71   ar
     7    33    27    1
     8    74    68    1
     9    86    80    1
    10    68    73   ar
    11    26    27   ar
    12    26    25   ar
    13    27    28   ar
    14    85    79    1
    15    71    77    1
    16    71    72   ar
    17    80    79   ar
    18    80    81   ar
    19    31    25    1
    20    25    24   ar
    21    79    84   ar
    22    73    72   ar
    23    73     4    1
    24    17    16    1
    25    28    34    1
    26    28    29   ar
    27    18    16    1
    28    72    78    1
    29    23    20    1
    30    97    91    1
    31    16     4    1
    32    16    19    1
    33    87    81    1
    34    81    82   ar
    35    22    20    1
    36    24    29   ar
    37    24    30    1
    38    29     2    1
    39    84     4    1
    40    84    83   ar
    41    20    19    1
    42    20    21    1
    43    96    90    1
    44     4     1    1
    45    91    90   ar
    46    91    92   ar
    47    12    10    1
    48    19    10    1
    49    19    13    1
    50    90    95   ar
    51    98    92    1
    52    82    83   ar
    53    82    88    1
    54    83    89    1
    55    92    93   ar
    56    10     2    1
    57    10    11    1
    58    14    13    1
    59     2     1    1
    60     2    40    1
    61     8     1    1
    62     8     9    1
    63    13    15    1
    64    13     3    1
    65    95     9    1
    66    95    94   ar
    67     1     3    1
    68     1     6    1
    69     9     5    2
    70    45    39    1
    71    93    94   ar
    72    93    99    1
    73    52    46    1
    74    40    39   ar
    75    40    35   ar
    76    94   100    1
    77    39    38   ar
    78     3    51    1
    79     3    62    1
    80    41    35    1
    81     5     6    1
    82    35    36   ar
    83     6     7    1
    84    46    51   ar
    85    46    47   ar
    86    38    44    1
    87    38    37   ar
    88    53    47    1
    89    51    50   ar
    90    36    37   ar
    91    36    42    1
    92    37    43    1
    93    62    61   ar
    94    62    57   ar
    95    67    61    1
    96    47    48   ar
    97    63    57    1
    98    61    60   ar
    99    57    58   ar
   100    50    56    1
   101    50    49   ar
   102    48    49   ar
   103    48    54    1
   104    60    66    1
   105    60    59   ar
   106    58    59   ar
   107    58    64    1
   108    49    55    1
   109    59    65    1
