@<TRIPOS>MOLECULE
CSD_code = NALROI | q = 0 | S = 0 | Stoichiometry = C49H50BCoNP3 | MND = 4
 105 113 0 0 0
SMALL
GASTEIGER

@<TRIPOS>ATOM
      1 CO          0.2952    0.4001    5.4667 Co.oh   1  UNL1        0.0000
      2 P           1.0257    2.4142    5.9004 P.3     1  UNL1        0.0000
      3 P           2.0988    0.2023    4.2023 P.3     1  UNL1        0.0000
      4 P          -0.7082    1.0367    3.6252 P.3     1  UNL1        0.0000
      5 N          -0.4655   -0.4626    6.5908 N.3     1  UNL1        0.0000
      6 B           1.5848    2.7957    3.0288 B       1  UNL1        0.0000
      7 C           2.0747    3.9428    1.9929 C.ar    1  UNL1        0.0000
      8 C           3.3266    3.9474    1.3807 C.ar    1  UNL1        0.0000
      9 H           4.0232    3.1455    1.5822 H       1  UNL1        0.0000
     10 C           3.7218    4.9524    0.5145 C.ar    1  UNL1        0.0000
     11 H           4.7028    4.9169    0.0588 H       1  UNL1        0.0000
     12 C           2.8676    6.0020    0.2302 C.ar    1  UNL1        0.0000
     13 H           3.1709    6.7891   -0.4463 H       1  UNL1        0.0000
     14 C           1.6194    6.0314    0.8274 C.ar    1  UNL1        0.0000
     15 H           0.9405    6.8481    0.6189 H       1  UNL1        0.0000
     16 C           1.2402    5.0200    1.6902 C.ar    1  UNL1        0.0000
     17 H           0.2594    5.0753    2.1451 H       1  UNL1        0.0000
     18 C           1.3565    3.5286    4.4983 C.3     1  UNL1        0.0000
     19 H           0.4891    4.1948    4.4532 H       1  UNL1        0.0000
     20 H           2.2092    4.1570    4.7752 H       1  UNL1        0.0000
     21 C           0.1657    2.1432    2.4690 C.3     1  UNL1        0.0000
     22 H           0.3861    1.5350    1.5865 H       1  UNL1        0.0000
     23 H          -0.5452    2.9120    2.1550 H       1  UNL1        0.0000
     24 C           2.6979    1.5858    3.1857 C.3     1  UNL1        0.0000
     25 H           3.5946    1.9582    3.6891 H       1  UNL1        0.0000
     26 H           3.0111    1.1818    2.2192 H       1  UNL1        0.0000
     27 C          -0.0762    3.4309    6.9453 C.ar    1  UNL1        0.0000
     28 C          -1.4088    3.0737    7.0948 C.ar    1  UNL1        0.0000
     29 H          -1.7552    2.1575    6.6339 H       1  UNL1        0.0000
     30 C          -2.2714    3.8747    7.8215 C.ar    1  UNL1        0.0000
     31 H          -3.3087    3.5912    7.9297 H       1  UNL1        0.0000
     32 C          -1.8021    5.0383    8.4071 C.ar    1  UNL1        0.0000
     33 H          -2.4716    5.6650    8.9778 H       1  UNL1        0.0000
     34 C          -0.4711    5.3998    8.2623 C.ar    1  UNL1        0.0000
     35 H          -0.1062    6.3076    8.7209 H       1  UNL1        0.0000
     36 C           0.3903    4.6041    7.5308 C.ar    1  UNL1        0.0000
     37 H           1.4285    4.8845    7.4135 H       1  UNL1        0.0000
     38 C           2.5183    2.4054    6.9462 C.ar    1  UNL1        0.0000
     39 C           2.3502    1.9697    8.2595 C.ar    1  UNL1        0.0000
     40 H           1.3551    1.7151    8.6013 H       1  UNL1        0.0000
     41 C           3.4337    1.8611    9.1075 C.ar    1  UNL1        0.0000
     42 H           3.2928    1.5291   10.1262 H       1  UNL1        0.0000
     43 C           4.7047    2.1723    8.6488 C.ar    1  UNL1        0.0000
     44 H           5.5559    2.0793    9.3071 H       1  UNL1        0.0000
     45 C           4.8799    2.6032    7.3458 C.ar    1  UNL1        0.0000
     46 H           5.8690    2.8475    6.9860 H       1  UNL1        0.0000
     47 C           3.7931    2.7225    6.4967 C.ar    1  UNL1        0.0000
     48 H           3.9444    3.0690    5.4854 H       1  UNL1        0.0000
     49 C           3.4120   -0.6543    6.5122 C.ar    1  UNL1        0.0000
     50 H           2.4192   -0.6324    6.9504 H       1  UNL1        0.0000
     51 C           4.5118   -1.0128    7.2695 C.ar    1  UNL1        0.0000
     52 H           4.3896   -1.2738    8.3109 H       1  UNL1        0.0000
     53 C           5.7701   -1.0323    6.6923 C.ar    1  UNL1        0.0000
     54 H           6.6322   -1.3060    7.2829 H       1  UNL1        0.0000
     55 C           5.9237   -0.7065    5.3541 C.ar    1  UNL1        0.0000
     56 H           6.9046   -0.7338    4.9014 H       1  UNL1        0.0000
     57 C           4.8254   -0.3461    4.5961 C.ar    1  UNL1        0.0000
     58 H           4.9445   -0.0965    3.5508 H       1  UNL1        0.0000
     59 C           3.5624   -0.3059    5.1764 C.ar    1  UNL1        0.0000
     60 C           1.9850   -1.2438    3.0913 C.ar    1  UNL1        0.0000
     61 C           1.7707   -1.1514    1.7218 C.ar    1  UNL1        0.0000
     62 H           1.7294   -0.1863    1.2388 H       1  UNL1        0.0000
     63 C           1.6051   -2.2961    0.9625 C.ar    1  UNL1        0.0000
     64 H           1.4361   -2.2121   -0.1014 H       1  UNL1        0.0000
     65 C           1.6496   -3.5431    1.5605 C.ar    1  UNL1        0.0000
     66 H           1.5190   -4.4344    0.9645 H       1  UNL1        0.0000
     67 C           1.8579   -3.6442    2.9271 C.ar    1  UNL1        0.0000
     68 H           1.8908   -4.6161    3.3986 H       1  UNL1        0.0000
     69 C           2.0168   -2.5030    3.6879 C.ar    1  UNL1        0.0000
     70 H           2.1620   -2.5761    4.7584 H       1  UNL1        0.0000
     71 C          -1.2535   -0.3773    2.6045 C.ar    1  UNL1        0.0000
     72 C          -1.7369   -0.1782    1.3156 C.ar    1  UNL1        0.0000
     73 H          -1.8048    0.8241    0.9157 H       1  UNL1        0.0000
     74 C          -2.1321   -1.2596    0.5505 C.ar    1  UNL1        0.0000
     75 H          -2.5032   -1.1019   -0.4520 H       1  UNL1        0.0000
     76 C          -2.0541   -2.5437    1.0658 C.ar    1  UNL1        0.0000
     77 H          -2.3578   -3.3864    0.4622 H       1  UNL1        0.0000
     78 C          -1.5916   -2.7452    2.3553 C.ar    1  UNL1        0.0000
     79 H          -1.5367   -3.7451    2.7610 H       1  UNL1        0.0000
     80 C          -1.1950   -1.6650    3.1217 C.ar    1  UNL1        0.0000
     81 H          -0.8264   -1.8059    4.1321 H       1  UNL1        0.0000
     82 C          -2.3216    1.8378    3.9276 C.ar    1  UNL1        0.0000
     83 C          -3.4571    1.0529    4.1100 C.ar    1  UNL1        0.0000
     84 H          -3.3849   -0.0207    4.0036 H       1  UNL1        0.0000
     85 C          -4.6696    1.6386    4.4223 C.ar    1  UNL1        0.0000
     86 H          -5.5458    1.0205    4.5570 H       1  UNL1        0.0000
     87 C          -4.7621    3.0136    4.5677 C.ar    1  UNL1        0.0000
     88 H          -5.7095    3.4696    4.8153 H       1  UNL1        0.0000
     89 C          -3.6353    3.8004    4.3976 C.ar    1  UNL1        0.0000
     90 H          -3.6999    4.8724    4.5162 H       1  UNL1        0.0000
     91 C          -2.4223    3.2165    4.0825 C.ar    1  UNL1        0.0000
     92 H          -1.5454    3.8349    3.9626 H       1  UNL1        0.0000
     93 C          -1.3292   -0.9548    7.5893 C.3     1  UNL1        0.0000
     94 C          -1.0169   -2.4497    7.7996 C.3     1  UNL1        0.0000
     95 H          -1.1876   -2.9996    6.8761 H       1  UNL1        0.0000
     96 H          -1.6533   -2.8612    8.5795 H       1  UNL1        0.0000
     97 H           0.0248   -2.5761    8.0882 H       1  UNL1        0.0000
     98 C          -2.7984   -0.7997    7.1573 C.3     1  UNL1        0.0000
     99 H          -3.0401    0.2490    6.9978 H       1  UNL1        0.0000
    100 H          -3.4567   -1.2011    7.9243 H       1  UNL1        0.0000
    101 H          -2.9702   -1.3368    6.2268 H       1  UNL1        0.0000
    102 C          -1.0933   -0.1958    8.9085 C.3     1  UNL1        0.0000
    103 H          -0.0629   -0.3288    9.2335 H       1  UNL1        0.0000
    104 H          -1.7576   -0.5759    9.6812 H       1  UNL1        0.0000
    105 H          -1.2813    0.8671    8.7698 H       1  UNL1        0.0000
@<TRIPOS>BOND
     1    75    74    1
     2    13    12    1
     3    64    63    1
     4    11    10    1
     5    12    10   ar
     6    12    14   ar
     7    77    76    1
     8    10     8   ar
     9    74    76   ar
    10    74    72   ar
    11    15    14    1
    12    14    16   ar
    13    73    72    1
    14    63    65   ar
    15    63    61   ar
    16    66    65    1
    17    76    78   ar
    18    62    61    1
    19    72    71   ar
    20     8     9    1
    21     8     7   ar
    22    65    67   ar
    23    22    21    1
    24    16     7   ar
    25    16    17    1
    26    61    60   ar
    27     7     6    1
    28    23    21    1
    29    26    24    1
    30    78    79    1
    31    78    80   ar
    32    21     6    1
    33    21     4    1
    34    71    80   ar
    35    71     4    1
    36    67    68    1
    37    67    69   ar
    38     6    24    1
    39     6    18    1
    40    60    69   ar
    41    60     3    1
    42    80    81    1
    43    24    25    1
    44    24     3    1
    45    58    57    1
    46     4    82    1
    47     4     1    1
    48    69    70    1
    49    82    91   ar
    50    82    83   ar
    51    92    91    1
    52    84    83    1
    53    91    89   ar
    54    83    85   ar
    55     3    59    1
    56     3     1    1
    57    89    90    1
    58    89    87   ar
    59    85    86    1
    60    85    87   ar
    61    19    18    1
    62    18    20    1
    63    18     2    1
    64    87    88    1
    65    57    59   ar
    66    57    55   ar
    67    56    55    1
    68    59    49   ar
    69    55    53   ar
    70     1     2    1
    71     1     5    1
    72    48    47    1
    73     2    27    1
    74     2    38    1
    75   101    98    1
    76    47    38   ar
    77    47    45   ar
    78    49    50    1
    79    49    51   ar
    80     5    93    1
    81    29    28    1
    82    53    51   ar
    83    53    54    1
    84    95    94    1
    85    27    28   ar
    86    27    36   ar
    87    38    39   ar
    88    46    45    1
    89    99    98    1
    90    28    30   ar
    91    98    93    1
    92    98   100    1
    93    51    52    1
    94    45    43   ar
    95    37    36    1
    96    36    34   ar
    97    93    94    1
    98    93   102    1
    99    94    97    1
   100    94    96    1
   101    30    31    1
   102    30    32   ar
   103    39    40    1
   104    39    41   ar
   105    34    32   ar
   106    34    35    1
   107    32    33    1
   108    43    41   ar
   109    43    44    1
   110   105   102    1
   111   102   103    1
   112   102   104    1
   113    41    42    1
