@<TRIPOS>MOLECULE
CSD_code = NAVWUC | q = -1 | S = 0 | Stoichiometry = C8H10CoN2O8(1-) | MND = 6
 29 32 0 0 0
SMALL
GASTEIGER

@<TRIPOS>ATOM
      1 CO          5.1453    2.4935    7.7763 Co.oh   1  UNL1        0.0000
      2 N           3.7462    1.4035    7.0177 N.4     1  UNL1        0.0000
      3 O           5.0749    3.5018    6.1923 O.3     1  UNL1        0.0000
      4 O           4.0909    3.6039    4.2056 O.2     1  UNL1        0.0000
      5 O           3.7791    3.5800    8.4713 O.3     1  UNL1        0.0000
      6 O           1.5729    3.7562    8.6365 O.2     1  UNL1        0.0000
      7 C           4.3235    3.0593    5.2667 C.2     1  UNL1        0.0000
      8 C           3.7180    1.6551    5.5702 C.3     1  UNL1        0.0000
      9 C           2.5866    3.1650    8.3204 C.2     1  UNL1        0.0000
     10 C           2.4939    1.7323    7.7129 C.3     1  UNL1        0.0000
     11 H           3.9714    0.4227    7.1819 H       1  UNL1        0.0000
     12 H           2.7062    1.5833    5.1587 H       1  UNL1        0.0000
     13 H           4.3655    0.9355    5.0633 H       1  UNL1        0.0000
     14 H           2.3596    1.0567    8.5611 H       1  UNL1        0.0000
     15 H           1.6242    1.6593    7.0521 H       1  UNL1        0.0000
     16 N           6.5445    3.5835    8.5349 N.4     1  UNL1        0.0000
     17 C           6.5726    3.3319    9.9824 C.3     1  UNL1        0.0000
     18 C           5.9671    1.9278   10.2858 C.2     1  UNL1        0.0000
     19 O           5.2158    1.4852    9.3603 O.3     1  UNL1        0.0000
     20 O           6.5116    1.4070    7.0813 O.3     1  UNL1        0.0000
     21 C           7.7041    1.8220    7.2322 C.2     1  UNL1        0.0000
     22 O           8.7177    1.2308    6.9161 O.2     1  UNL1        0.0000
     23 C           7.7968    3.2547    7.8397 C.3     1  UNL1        0.0000
     24 H           6.3193    4.5643    8.3707 H       1  UNL1        0.0000
     25 H           7.9310    3.9303    6.9914 H       1  UNL1        0.0000
     26 H           8.6664    3.3277    8.5005 H       1  UNL1        0.0000
     27 O           6.1998    1.3831   11.3470 O.2     1  UNL1        0.0000
     28 H           7.5844    3.4037   10.3939 H       1  UNL1        0.0000
     29 H           5.9251    4.0515   10.4892 H       1  UNL1        0.0000
@<TRIPOS>BOND
     1     4     7    2
     2    13     8    1
     3    12     8    1
     4     7     8    1
     5     7     3    1
     6     8     2    1
     7     3     1    1
     8    22    21    2
     9    25    23    1
    10     2    11    1
    11     2    10    1
    12     2     1    1
    13    15    10    1
    14    20    21    1
    15    20     1    1
    16    21    23    1
    17    10     9    1
    18    10    14    1
    19     1     5    1
    20     1    16    1
    21     1    19    1
    22    23    26    1
    23    23    16    1
    24     9     5    1
    25     9     6    2
    26    24    16    1
    27    16    17    1
    28    19    18    1
    29    17    18    1
    30    17    28    1
    31    17    29    1
    32    18    27    2
