@<TRIPOS>MOLECULE
CSD_code = NAYBEW | q = 1 | S = 0 | Stoichiometry = C26H26CoN4O2(1+) | MND = 6
 59 64 0 0 0
SMALL
GASTEIGER

@<TRIPOS>ATOM
      1 CO          7.7934    5.3587    3.9204 Co.oh   1  UNL1        0.0000
      2 N           8.4661    7.0343    3.1062 N.pl3   1  UNL1        0.0000
      3 C           7.6517    7.8208    2.4016 C.3     1  UNL1        0.0000
      4 H           6.6263    7.4936    2.3125 H       1  UNL1        0.0000
      5 C           8.0803    8.9829    1.7838 C.2     1  UNL1        0.0000
      6 H           7.3796    9.5814    1.2243 H       1  UNL1        0.0000
      7 C           9.4101    9.3557    1.8972 C.2     1  UNL1        0.0000
      8 H           9.7763   10.2560    1.4289 H       1  UNL1        0.0000
      9 C          10.2570    8.5387    2.6296 C.2     1  UNL1        0.0000
     10 H          11.3006    8.7818    2.7489 H       1  UNL1        0.0000
     11 C           9.7459    7.3927    3.2127 C.2     1  UNL1        0.0000
     12 H          10.3795    6.7439    3.8001 H       1  UNL1        0.0000
     13 N           6.5140    6.3715    4.9880 N.pl3   1  UNL1        0.0000
     14 C           5.2188    6.0537    5.0291 C.3     1  UNL1        0.0000
     15 H           4.8908    5.2308    4.4116 H       1  UNL1        0.0000
     16 C           4.2999    6.7358    5.8075 C.2     1  UNL1        0.0000
     17 H           3.2657    6.4314    5.7991 H       1  UNL1        0.0000
     18 C           4.7292    7.7981    6.5852 C.2     1  UNL1        0.0000
     19 H           4.0397    8.3477    7.2065 H       1  UNL1        0.0000
     20 C           6.0731    8.1345    6.5391 C.2     1  UNL1        0.0000
     21 H           6.4632    8.9543    7.1205 H       1  UNL1        0.0000
     22 C           6.9236    7.4027    5.7313 C.2     1  UNL1        0.0000
     23 H           7.9754    7.6463    5.6903 H       1  UNL1        0.0000
     24 N           9.0295    4.3099    2.8670 N.pl3   1  UNL1        0.0000
     25 C           9.0774    4.4519    1.5406 C.3     1  UNL1        0.0000
     26 H           8.4363    5.2065    1.1085 H       1  UNL1        0.0000
     27 C           9.8752    3.6655    0.7292 C.2     1  UNL1        0.0000
     28 H           9.8672    3.8211   -0.3375 H       1  UNL1        0.0000
     29 C          10.6685    2.6869    1.3055 C.2     1  UNL1        0.0000
     30 H          11.2985    2.0538    0.7005 H       1  UNL1        0.0000
     31 C          10.6258    2.5439    2.6830 C.2     1  UNL1        0.0000
     32 H          11.2215    1.7990    3.1856 H       1  UNL1        0.0000
     33 C           9.7964    3.3686    3.4209 C.2     1  UNL1        0.0000
     34 H           9.7516    3.2661    4.4952 H       1  UNL1        0.0000
     35 C           6.0200    3.9842    2.5322 C.ar    1  UNL1        0.0000
     36 O           6.5415    5.1932    2.5517 O.3     1  UNL1        0.0000
     37 C           5.2124    3.5286    1.4895 C.ar    1  UNL1        0.0000
     38 H           4.9616    4.2070    0.6892 H       1  UNL1        0.0000
     39 C           4.7847    2.2158    1.4810 C.ar    1  UNL1        0.0000
     40 H           4.1718    1.8619    0.6666 H       1  UNL1        0.0000
     41 C           5.1694    1.3413    2.4865 C.ar    1  UNL1        0.0000
     42 H           4.8741    0.3050    2.4431 H       1  UNL1        0.0000
     43 C           5.9377    1.7836    3.5489 C.ar    1  UNL1        0.0000
     44 H           6.2629    1.0764    4.2930 H       1  UNL1        0.0000
     45 C           6.3188    3.1201    3.6127 C.ar    1  UNL1        0.0000
     46 N           7.0813    3.7492    4.6054 N.pl3   1  UNL1        0.0000
     47 C           7.1504    3.3924    5.8695 C.3     1  UNL1        0.0000
     48 C           6.2207    2.3781    6.4739 C.3     1  UNL1        0.0000
     49 H           5.2849    2.3251    5.9232 H       1  UNL1        0.0000
     50 H           6.0136    2.6569    7.5049 H       1  UNL1        0.0000
     51 H           6.6773    1.3896    6.4882 H       1  UNL1        0.0000
     52 C           8.0886    3.9629    6.7511 C.2     1  UNL1        0.0000
     53 H           8.1076    3.5820    7.7592 H       1  UNL1        0.0000
     54 C           9.0057    4.9422    6.4236 C.2     1  UNL1        0.0000
     55 O           9.0649    5.5533    5.3000 O.2     1  UNL1        0.0000
     56 C          10.0209    5.3565    7.4605 C.3     1  UNL1        0.0000
     57 H          10.5965    4.4965    7.7938 H       1  UNL1        0.0000
     58 H           9.5153    5.7777    8.3266 H       1  UNL1        0.0000
     59 H          10.6948    6.1006    7.0451 H       1  UNL1        0.0000
@<TRIPOS>BOND
     1    28    27    1
     2    40    39    1
     3    38    37    1
     4    30    29    1
     5    27    29    2
     6    27    25    1
     7    26    25    1
     8     6     5    1
     9    29    31    1
    10     8     7    1
    11    39    37   ar
    12    39    41   ar
    13    37    35   ar
    14    25    24    1
    15     5     7    2
    16     5     3    1
    17     7     9    1
    18     4     3    1
    19     3     2    1
    20    42    41    1
    21    41    43   ar
    22    35    36    1
    23    35    45   ar
    24    36     1    1
    25     9    10    1
    26     9    11    2
    27    31    32    1
    28    31    33    2
    29    24    33    1
    30    24     1    1
    31     2    11    1
    32     2     1    1
    33    11    12    1
    34    33    34    1
    35    43    45   ar
    36    43    44    1
    37    45    46    1
    38     1    46    1
    39     1    13    1
    40     1    55    1
    41    15    14    1
    42    46    47    1
    43    13    14    1
    44    13    22    1
    45    14    16    1
    46    55    54    1
    47    23    22    1
    48    22    20    2
    49    17    16    1
    50    16    18    2
    51    47    48    1
    52    47    52    1
    53    49    48    1
    54    54    52    2
    55    54    56    1
    56    48    51    1
    57    48    50    1
    58    20    18    1
    59    20    21    1
    60    18    19    1
    61    52    53    1
    62    59    56    1
    63    56    57    1
    64    56    58    1
