@<TRIPOS>MOLECULE
CSD_code = NECQIW | q = 1 | S = 0 | Stoichiometry = C16H22CoN4O4S2(1+) | MND = 6
 49 54 0 0 0
SMALL
GASTEIGER

@<TRIPOS>ATOM
      1 CO         -1.5112    8.9863    3.6412 Co.oh   1  UNL1        0.0000
      2 S          -1.4768    7.8818    1.8048 S.O2    1  UNL1        0.0000
      3 O          -2.5909    6.9952    1.6654 O.2     1  UNL1        0.0000
      4 O          -0.1543    7.3143    1.6669 O.2     1  UNL1        0.0000
      5 C          -1.6827    9.1960    0.5123 C.3     1  UNL1        0.0000
      6 C          -2.6437   10.1385    1.1827 C.3     1  UNL1        0.0000
      7 N          -2.1201   10.5402    2.4990 N.4     1  UNL1        0.0000
      8 C          -1.0241   11.5181    2.3973 C.3     1  UNL1        0.0000
      9 C           0.3063   10.8087    2.4006 C.3     1  UNL1        0.0000
     10 C           1.4089   11.2850    1.7070 C.2     1  UNL1        0.0000
     11 C           2.5966   10.5730    1.7681 C.2     1  UNL1        0.0000
     12 C           2.6398    9.4147    2.5280 C.2     1  UNL1        0.0000
     13 C           1.4952    9.0116    3.1933 C.2     1  UNL1        0.0000
     14 N           0.3570    9.6949    3.1367 N.pl3   1  UNL1        0.0000
     15 S          -3.5011    8.4039    4.1747 S.O2    1  UNL1        0.0000
     16 O          -3.8290    7.0117    4.1751 O.2     1  UNL1        0.0000
     17 O          -4.3611    9.3326    3.4676 O.2     1  UNL1        0.0000
     18 C          -3.6112    8.9274    5.9658 C.3     1  UNL1        0.0000
     19 C          -2.8431   10.2179    6.0940 C.3     1  UNL1        0.0000
     20 N          -1.4933   10.0823    5.5257 N.4     1  UNL1        0.0000
     21 C          -0.5935    9.2650    6.3518 C.3     1  UNL1        0.0000
     22 C          -0.6984    7.8049    5.9965 C.3     1  UNL1        0.0000
     23 C          -0.4382    6.8185    6.9354 C.2     1  UNL1        0.0000
     24 C          -0.5335    5.4871    6.5630 C.2     1  UNL1        0.0000
     25 C          -0.8943    5.1932    5.2586 C.2     1  UNL1        0.0000
     26 C          -1.1409    6.2315    4.3764 C.2     1  UNL1        0.0000
     27 N          -1.0270    7.5093    4.7312 N.pl3   1  UNL1        0.0000
     28 H          -2.9201   10.9524    2.9834 H       1  UNL1        0.0000
     29 H          -1.0917   11.0162    5.4749 H       1  UNL1        0.0000
     30 H          -2.0968    8.7152   -0.3676 H       1  UNL1        0.0000
     31 H          -0.7033    9.6159    0.3038 H       1  UNL1        0.0000
     32 H          -3.5874    9.6134    1.3558 H       1  UNL1        0.0000
     33 H          -2.8408   11.0238    0.5650 H       1  UNL1        0.0000
     34 H          -1.0559   12.1923    3.2594 H       1  UNL1        0.0000
     35 H          -1.1212   12.1320    1.4954 H       1  UNL1        0.0000
     36 H           1.3352   12.1898    1.1244 H       1  UNL1        0.0000
     37 H           3.4662   10.9135    1.2282 H       1  UNL1        0.0000
     38 H           3.5404    8.8279    2.5984 H       1  UNL1        0.0000
     39 H           1.4883    8.1096    3.7859 H       1  UNL1        0.0000
     40 H          -3.2077    8.1121    6.5569 H       1  UNL1        0.0000
     41 H          -4.6695    9.0520    6.1705 H       1  UNL1        0.0000
     42 H          -2.7893   10.5331    7.1461 H       1  UNL1        0.0000
     43 H          -3.3730   10.9909    5.5319 H       1  UNL1        0.0000
     44 H          -0.7952    9.4040    7.4214 H       1  UNL1        0.0000
     45 H           0.4362    9.5834    6.1577 H       1  UNL1        0.0000
     46 H          -0.1728    7.0943    7.9440 H       1  UNL1        0.0000
     47 H          -0.3421    4.7029    7.2784 H       1  UNL1        0.0000
     48 H          -0.9977    4.1753    4.9219 H       1  UNL1        0.0000
     49 H          -1.4486    6.0186    3.3651 H       1  UNL1        0.0000
@<TRIPOS>BOND
     1    30     5    1
     2    31     5    1
     3     5     6    1
     4     5     2    1
     5    33     6    1
     6    36    10    1
     7     6    32    1
     8     6     7    1
     9    37    11    1
    10    35     8    1
    11     3     2    2
    12     4     2    2
    13    10    11    2
    14    10     9    1
    15    11    12    1
    16     2     1    1
    17     8     9    1
    18     8     7    1
    19     8    34    1
    20     9    14    1
    21     7    28    1
    22     7     1    1
    23    12    38    1
    24    12    13    2
    25    14    13    1
    26    14     1    1
    27    13    39    1
    28    49    26    1
    29    17    15    2
    30     1    15    1
    31     1    27    1
    32     1    20    1
    33    15    16    2
    34    15    18    1
    35    26    27    1
    36    26    25    2
    37    27    22    1
    38    48    25    1
    39    25    24    1
    40    29    20    1
    41    20    19    1
    42    20    21    1
    43    43    19    1
    44    18    19    1
    45    18    41    1
    46    18    40    1
    47    22    21    1
    48    22    23    1
    49    19    42    1
    50    45    21    1
    51    21    44    1
    52    24    23    2
    53    24    47    1
    54    23    46    1
