@<TRIPOS>MOLECULE
CSD_code = NEWKOS | q = 1 | S = 0 | Stoichiometry = C34H26CoN8S2(1+) | MND = 6
 71 80 0 0 0
SMALL
GASTEIGER

@<TRIPOS>ATOM
      1 CO          1.9389    3.1012   12.1576 Co.oh   1  UNL1        0.0000
      2 S           2.2013    0.9881   13.0404 S.3     1  UNL1        0.0000
      3 S           1.0644    3.9032   14.1340 S.3     1  UNL1        0.0000
      4 N           3.6376    3.3940   12.8528 N.pl3   1  UNL1        0.0000
      5 N           2.1183    5.0233   11.5531 N.pl3   1  UNL1        0.0000
      6 N           2.2787    2.2928   10.3350 N.pl3   1  UNL1        0.0000
      7 C           3.8096    1.3008   13.6111 C.2     1  UNL1        0.0000
      8 N           4.3519    2.4894   13.4800 N.2     1  UNL1        0.0000
      9 N           0.1733    2.6633   11.7770 N.pl3   1  UNL1        0.0000
     10 N          -0.8443    2.9213   12.5642 N.2     1  UNL1        0.0000
     11 C          -0.5723    3.5335   13.6934 C.2     1  UNL1        0.0000
     12 C           3.4039    2.1569    9.5846 C.2     1  UNL1        0.0000
     13 C           3.2043    5.5497   12.1406 C.2     1  UNL1        0.0000
     14 C           1.5506    7.2433   10.7570 C.2     1  UNL1        0.0000
     15 C           4.0333    4.6356   12.8486 C.3     1  UNL1        0.0000
     16 H           4.9360    4.9381   13.3612 H       1  UNL1        0.0000
     17 C           1.3078    5.8385   10.8275 C.2     1  UNL1        0.0000
     18 N          -1.5078    3.8709   14.5847 N.pl3   1  UNL1        0.0000
     19 H          -1.1489    4.2929   15.4342 H       1  UNL1        0.0000
     20 N           4.4232    0.2805   14.2159 N.pl3   1  UNL1        0.0000
     21 C           0.0030    1.8982   10.7359 C.3     1  UNL1        0.0000
     22 H          -0.9606    1.4615   10.5125 H       1  UNL1        0.0000
     23 C          -2.8936    3.6853   14.5651 C.ar    1  UNL1        0.0000
     24 C           5.6801    0.2043   14.8239 C.ar    1  UNL1        0.0000
     25 C           1.1558    1.6776    9.9319 C.2     1  UNL1        0.0000
     26 C           3.5158    6.9266   12.0831 C.2     1  UNL1        0.0000
     27 H           4.4015    7.2767   12.5874 H       1  UNL1        0.0000
     28 C           4.5832    2.8599    9.8979 C.2     1  UNL1        0.0000
     29 H           4.5796    3.5446   10.7270 H       1  UNL1        0.0000
     30 C           6.0003   -0.9889   15.4707 C.ar    1  UNL1        0.0000
     31 H           5.2866   -1.8003   15.4837 H       1  UNL1        0.0000
     32 C           3.4249    1.3068    8.4381 C.2     1  UNL1        0.0000
     33 C           5.7225    2.7014    9.1548 C.2     1  UNL1        0.0000
     34 H           6.6118    3.2536    9.4174 H       1  UNL1        0.0000
     35 C           6.5995    1.2481   14.8061 C.ar    1  UNL1        0.0000
     36 H           6.3499    2.1669   14.3038 H       1  UNL1        0.0000
     37 C           0.6746    8.0673   10.0267 C.3     1  UNL1        0.0000
     38 H           0.8758    9.1275    9.9970 H       1  UNL1        0.0000
     39 C           1.1042    0.8468    8.7904 C.2     1  UNL1        0.0000
     40 H           0.1678    0.3785    8.5350 H       1  UNL1        0.0000
     41 C           7.8198    1.0935   15.4386 C.ar    1  UNL1        0.0000
     42 H           8.5294    1.9065   15.4251 H       1  UNL1        0.0000
     43 C           8.1367   -0.0899   16.0847 C.ar    1  UNL1        0.0000
     44 H           9.0906   -0.2013   16.5755 H       1  UNL1        0.0000
     45 C           2.6816    7.7705   11.4178 C.2     1  UNL1        0.0000
     46 H           2.8716    8.8322   11.3761 H       1  UNL1        0.0000
     47 C          -3.6001    4.0601   15.7076 C.ar    1  UNL1        0.0000
     48 H          -3.0704    4.4719   16.5548 H       1  UNL1        0.0000
     49 C           7.2227   -1.1315   16.0974 C.ar    1  UNL1        0.0000
     50 H           7.4610   -2.0569   16.5983 H       1  UNL1        0.0000
     51 C          -0.6196    6.1558    9.3985 C.2     1  UNL1        0.0000
     52 H          -1.4531    5.7375    8.8555 H       1  UNL1        0.0000
     53 C          -3.5759    3.1568   13.4741 C.ar    1  UNL1        0.0000
     54 H          -3.0277    2.8706   12.5930 H       1  UNL1        0.0000
     55 C           2.2364    0.6420    8.0645 C.2     1  UNL1        0.0000
     56 H           2.2427   -0.0087    7.2034 H       1  UNL1        0.0000
     57 C           4.6140    1.1589    7.7006 C.3     1  UNL1        0.0000
     58 H           4.6054    0.5026    6.8435 H       1  UNL1        0.0000
     59 C           5.7489    1.8357    8.0540 C.2     1  UNL1        0.0000
     60 H           6.6581    1.7175    7.4863 H       1  UNL1        0.0000
     61 C           0.2106    5.3286   10.1070 C.2     1  UNL1        0.0000
     62 H           0.0341    4.2680   10.1035 H       1  UNL1        0.0000
     63 C          -4.9708    3.9004   15.7587 C.ar    1  UNL1        0.0000
     64 H          -5.5091    4.1901   16.6477 H       1  UNL1        0.0000
     65 C          -0.3992    7.5387    9.3644 C.2     1  UNL1        0.0000
     66 H          -1.0688    8.1750    8.8077 H       1  UNL1        0.0000
     67 C          -4.9488    3.0009   13.5381 C.ar    1  UNL1        0.0000
     68 H          -5.4743    2.5880   12.6906 H       1  UNL1        0.0000
     69 C          -5.6503    3.3688   14.6741 C.ar    1  UNL1        0.0000
     70 H          -6.7208    3.2434   14.7151 H       1  UNL1        0.0000
     71 H           3.8670   -0.5646   14.2863 H       1  UNL1        0.0000
@<TRIPOS>BOND
     1    58    57    1
     2    56    55    1
     3    60    59    1
     4    57    59    1
     5    57    32    1
     6    59    33    2
     7    55    32    2
     8    55    39    1
     9    32    12    1
    10    40    39    1
    11    39    25    2
    12    66    65    1
    13    52    51    1
    14    33    34    1
    15    33    28    1
    16    65    51    2
    17    65    37    1
    18    51    61    1
    19    12    28    2
    20    12     6    1
    21    28    29    1
    22    25     6    1
    23    25    21    1
    24    38    37    1
    25    37    14    1
    26    62    61    1
    27    61    17    2
    28     6     1    1
    29    22    21    1
    30    21     9    1
    31    14    17    1
    32    14    45    2
    33    17     5    1
    34    46    45    1
    35    45    26    1
    36     5    13    1
    37     5     1    1
    38     9     1    1
    39     9    10    1
    40    26    13    2
    41    26    27    1
    42    13    15    1
    43     1     4    1
    44     1     2    1
    45     1     3    1
    46    10    11    2
    47    54    53    1
    48    68    67    1
    49    15     4    1
    50    15    16    1
    51     4     8    1
    52     2     7    1
    53    53    67   ar
    54    53    23   ar
    55     8     7    2
    56    67    69   ar
    57     7    20    1
    58    11     3    1
    59    11    18    1
    60    20    71    1
    61    20    24    1
    62    36    35    1
    63    23    18    1
    64    23    47   ar
    65    18    19    1
    66    69    70    1
    67    69    63   ar
    68    35    24   ar
    69    35    41   ar
    70    24    30   ar
    71    42    41    1
    72    41    43   ar
    73    30    31    1
    74    30    49   ar
    75    47    63   ar
    76    47    48    1
    77    63    64    1
    78    43    49   ar
    79    43    44    1
    80    49    50    1
