@<TRIPOS>MOLECULE
CSD_code = NEWSAM | q = 1 | S = 0 | Stoichiometry = C22H18CoN8S2(1+) | MND = 6
 51 58 0 0 0
SMALL
GASTEIGER

@<TRIPOS>ATOM
      1 CO          3.2951    6.0387    4.6714 Co.oh   1  UNL1        0.0000
      2 S           2.8215    5.7441    6.9193 S.3     1  UNL1        0.0000
      3 S           1.3167    5.0142    4.0375 S.3     1  UNL1        0.0000
      4 N           3.9799    4.3116    4.6379 N.pl3   1  UNL1        0.0000
      5 N           1.8530    8.0501    6.0141 N.2     1  UNL1        0.0000
      6 N           5.1789    6.5137    5.2281 N.pl3   1  UNL1        0.0000
      7 N           3.2932    3.2506    4.2779 N.2     1  UNL1        0.0000
      8 C           2.0444    7.2776    7.0583 C.2     1  UNL1        0.0000
      9 C           2.0430    3.4537    3.9318 C.2     1  UNL1        0.0000
     10 N           3.4707    6.6717    2.7602 N.pl3   1  UNL1        0.0000
     11 N           1.6098    7.6682    8.2560 N.pl3   1  UNL1        0.0000
     12 H           1.0984    8.5306    8.3419 H       1  UNL1        0.0000
     13 H           1.6784    7.0473    9.0439 H       1  UNL1        0.0000
     14 C           2.6435    7.7138    2.5847 C.2     1  UNL1        0.0000
     15 C           5.1578    4.1698    5.1722 C.3     1  UNL1        0.0000
     16 H           5.5841    3.1902    5.3384 H       1  UNL1        0.0000
     17 N           1.3018    2.4298    3.5098 N.pl3   1  UNL1        0.0000
     18 H           1.6939    1.5030    3.5021 H       1  UNL1        0.0000
     19 H           0.3229    2.5598    3.3203 H       1  UNL1        0.0000
     20 C           5.8318    5.3771    5.5158 C.2     1  UNL1        0.0000
     21 C           5.7885    7.7013    5.4845 C.3     1  UNL1        0.0000
     22 C           4.1173    6.1602    1.6795 C.2     1  UNL1        0.0000
     23 C           5.2030    8.9235    5.1017 C.2     1  UNL1        0.0000
     24 H           4.2723    8.9119    4.5631 H       1  UNL1        0.0000
     25 C           3.8528    6.6511    0.3651 C.2     1  UNL1        0.0000
     26 C           7.0578    7.7496    6.1366 C.2     1  UNL1        0.0000
     27 C           5.8080   10.1189    5.3850 C.2     1  UNL1        0.0000
     28 H           5.3377   11.0405    5.0786 H       1  UNL1        0.0000
     29 C           7.0332   10.1626    6.0631 C.2     1  UNL1        0.0000
     30 H           7.4894   11.1141    6.2856 H       1  UNL1        0.0000
     31 C           7.6978    6.5353    6.4659 C.2     1  UNL1        0.0000
     32 H           8.6540    6.5597    6.9659 H       1  UNL1        0.0000
     33 C           7.1022    5.3579    6.1320 C.2     1  UNL1        0.0000
     34 H           7.5600    4.4052    6.3421 H       1  UNL1        0.0000
     35 C           2.9422    7.7185    0.2104 C.2     1  UNL1        0.0000
     36 H           2.7281    8.0923   -0.7793 H       1  UNL1        0.0000
     37 C           7.6481    8.9948    6.4223 C.2     1  UNL1        0.0000
     38 H           8.6033    9.0043    6.9250 H       1  UNL1        0.0000
     39 C           2.3640    8.2648    1.3149 C.2     1  UNL1        0.0000
     40 H           1.6796    9.0948    1.2513 H       1  UNL1        0.0000
     41 N           2.3512    7.6265    4.8742 N.pl3   1  UNL1        0.0000
     42 C           2.0425    8.2352    3.7665 C.3     1  UNL1        0.0000
     43 H           1.3706    9.0823    3.7603 H       1  UNL1        0.0000
     44 C           5.0829    5.1444    1.8162 C.2     1  UNL1        0.0000
     45 H           5.3381    4.7940    2.8003 H       1  UNL1        0.0000
     46 C           5.7140    4.6142    0.7226 C.2     1  UNL1        0.0000
     47 H           6.4514    3.8379    0.8565 H       1  UNL1        0.0000
     48 C           4.5105    6.0775   -0.7390 C.3     1  UNL1        0.0000
     49 H           4.2852    6.4594   -1.7232 H       1  UNL1        0.0000
     50 C           5.4196    5.0697   -0.5692 C.2     1  UNL1        0.0000
     51 H           5.9199    4.6329   -1.4188 H       1  UNL1        0.0000
@<TRIPOS>BOND
     1    49    48    1
     2    51    50    1
     3    36    35    1
     4    48    50    1
     5    48    25    1
     6    50    46    2
     7    35    25    2
     8    35    39    1
     9    25    22    1
    10    46    47    1
    11    46    44    1
    12    40    39    1
    13    39    14    2
    14    22    44    2
    15    22    10    1
    16    44    45    1
    17    14    10    1
    18    14    42    1
    19    10     1    1
    20    19    17    1
    21    18    17    1
    22    17     9    1
    23    43    42    1
    24    42    41    1
    25     9     3    1
    26     9     7    2
    27     3     1    1
    28     7     4    1
    29    24    23    1
    30     4     1    1
    31     4    15    1
    32     1    41    1
    33     1     6    1
    34     1     2    1
    35    41     5    1
    36    28    27    1
    37    23    27    2
    38    23    21    1
    39    15    16    1
    40    15    20    1
    41     6    21    1
    42     6    20    1
    43    27    29    1
    44    21    26    1
    45    20    33    2
    46     5     8    2
    47    29    30    1
    48    29    37    2
    49    33    34    1
    50    33    31    1
    51    26    37    1
    52    26    31    2
    53    37    38    1
    54    31    32    1
    55     2     8    1
    56     8    11    1
    57    11    12    1
    58    11    13    1
