@<TRIPOS>MOLECULE
CSD_code = NEXSOB | q = 1 | S = 0 | Stoichiometry = C28H28CoN6O6(1+) | MND = 6
 69 76 0 0 0
SMALL
GASTEIGER

@<TRIPOS>ATOM
      1 CO         -0.8473    9.3241   16.6850 Co.oh   1  UNL1        0.0000
      2 O          -1.7295    8.3067   17.9731 O.3     1  UNL1        0.0000
      3 O           2.6893    8.4076   14.9590 O.2     1  UNL1        0.0000
      4 O           2.3623    6.7616   13.4816 O.3     1  UNL1        0.0000
      5 O          -2.2494    9.0228   15.4955 O.3     1  UNL1        0.0000
      6 O           0.1899   12.9342   18.2004 O.2     1  UNL1        0.0000
      7 O          -1.2554   13.4736   19.8185 O.3     1  UNL1        0.0000
      8 N          -0.0018    7.7329   15.8935 N.3     1  UNL1        0.0000
      9 N           0.0206   10.4353   15.3534 N.pl3   1  UNL1        0.0000
     10 N           1.0319   12.0689   14.3145 N.pl3   1  UNL1        0.0000
     11 H           1.4644   12.9631   14.1436 H       1  UNL1        0.0000
     12 N          -1.7526   10.8812   17.4781 N.3     1  UNL1        0.0000
     13 N           0.6319    9.5732   17.9156 N.pl3   1  UNL1        0.0000
     14 N           2.6165    9.6946   18.8198 N.pl3   1  UNL1        0.0000
     15 H           3.6173    9.6406   18.9260 H       1  UNL1        0.0000
     16 C          -1.3359    7.1927   18.4716 C.ar    1  UNL1        0.0000
     17 C          -1.9301    6.7327   19.6762 C.ar    1  UNL1        0.0000
     18 H          -2.7157    7.3343   20.1081 H       1  UNL1        0.0000
     19 C          -1.5306    5.5670   20.2695 C.ar    1  UNL1        0.0000
     20 H          -1.9954    5.2509   21.1913 H       1  UNL1        0.0000
     21 C          -0.5265    4.7744   19.6976 C.ar    1  UNL1        0.0000
     22 H          -0.2213    3.8604   20.1811 H       1  UNL1        0.0000
     23 C           0.0381    5.1604   18.5142 C.ar    1  UNL1        0.0000
     24 H           0.7941    4.5464   18.0457 H       1  UNL1        0.0000
     25 C          -0.3418    6.3605   17.8758 C.ar    1  UNL1        0.0000
     26 C           0.1542    6.6467   16.5857 C.3     1  UNL1        0.0000
     27 H           0.6771    5.8133   16.1096 H       1  UNL1        0.0000
     28 C           0.4319    7.6086   14.5064 C.3     1  UNL1        0.0000
     29 H           0.1042    6.6402   14.1070 H       1  UNL1        0.0000
     30 C          -0.1271    8.6969   13.5750 C.3     1  UNL1        0.0000
     31 H           0.2611    8.5408   12.5677 H       1  UNL1        0.0000
     32 H          -1.2119    8.5955   13.5547 H       1  UNL1        0.0000
     33 C           0.2502   10.0468   14.0619 C.2     1  UNL1        0.0000
     34 C           0.5061   11.6545   15.4748 C.3     1  UNL1        0.0000
     35 H           0.5027   12.2384   16.3748 H       1  UNL1        0.0000
     36 C           0.8838   11.0631   13.4062 C.2     1  UNL1        0.0000
     37 H           1.2199   11.1412   12.3937 H       1  UNL1        0.0000
     38 C           1.9565    7.6506   14.3723 C.2     1  UNL1        0.0000
     39 C           3.7576    6.7214   13.1844 C.3     1  UNL1        0.0000
     40 H           4.3116    6.3259   14.0371 H       1  UNL1        0.0000
     41 H           4.1241    7.7230   12.9553 H       1  UNL1        0.0000
     42 H           3.8646    6.0649   12.3255 H       1  UNL1        0.0000
     43 C          -3.0401    9.9066   15.0074 C.ar    1  UNL1        0.0000
     44 C          -3.8076    9.5803   13.8585 C.ar    1  UNL1        0.0000
     45 H          -3.7123    8.5813   13.4603 H       1  UNL1        0.0000
     46 C          -4.6441   10.4923   13.2760 C.ar    1  UNL1        0.0000
     47 H          -5.2053   10.2157   12.3961 H       1  UNL1        0.0000
     48 C          -4.7850   11.7820   13.8054 C.ar    1  UNL1        0.0000
     49 H          -5.4454   12.4895   13.3306 H       1  UNL1        0.0000
     50 C          -4.0986   12.1190   14.9384 C.ar    1  UNL1        0.0000
     51 H          -4.2176   13.1002   15.3755 H       1  UNL1        0.0000
     52 C          -3.2205   11.2082   15.5636 C.ar    1  UNL1        0.0000
     53 C          -2.6502   11.5396   16.8118 C.3     1  UNL1        0.0000
     54 H          -3.0787   12.4289   17.2808 H       1  UNL1        0.0000
     55 C          -1.5632   11.3664   18.8402 C.3     1  UNL1        0.0000
     56 H          -2.5411   11.5723   19.2938 H       1  UNL1        0.0000
     57 C          -0.8345   10.3749   19.7629 C.3     1  UNL1        0.0000
     58 H          -0.7152   10.8247   20.7495 H       1  UNL1        0.0000
     59 H          -1.4547    9.4837   19.8536 H       1  UNL1        0.0000
     60 C           0.4920   10.0184   19.2017 C.2     1  UNL1        0.0000
     61 C           1.9216    9.3915   17.7154 C.3     1  UNL1        0.0000
     62 H           2.3681    9.0655   16.7959 H       1  UNL1        0.0000
     63 C           1.7295   10.0986   19.7731 C.2     1  UNL1        0.0000
     64 H           2.0289   10.3954   20.7563 H       1  UNL1        0.0000
     65 C          -0.7688   12.6745   18.8842 C.2     1  UNL1        0.0000
     66 C          -0.5785   14.7102   20.0405 C.3     1  UNL1        0.0000
     67 H          -0.7290   15.3783   19.1912 H       1  UNL1        0.0000
     68 H           0.4905   14.5374   20.1721 H       1  UNL1        0.0000
     69 H          -1.0148   15.1360   20.9395 H       1  UNL1        0.0000
@<TRIPOS>BOND
     1    42    39    1
     2    37    36    1
     3    47    46    1
     4    31    30    1
     5    41    39    1
     6    39     4    1
     7    39    40    1
     8    46    48   ar
     9    46    44   ar
    10    49    48    1
    11    36    33    2
    12    36    10    1
    13    45    44    1
    14     4    38    1
    15    32    30    1
    16    30    33    1
    17    30    28    1
    18    48    50   ar
    19    44    43   ar
    20    33     9    1
    21    29    28    1
    22    11    10    1
    23    10    34    1
    24    38    28    1
    25    38     3    2
    26    28     8    1
    27    50    51    1
    28    50    52   ar
    29    43     5    1
    30    43    52   ar
    31     9    34    1
    32     9     1    1
    33    34    35    1
    34     5     1    1
    35    52    53    1
    36     8    26    1
    37     8     1    1
    38    27    26    1
    39    26    25    1
    40     1    12    1
    41     1    13    1
    42     1     2    1
    43    62    61    1
    44    53    54    1
    45    53    12    1
    46    12    55    1
    47    61    13    1
    48    61    14    1
    49    25    16   ar
    50    25    23   ar
    51    13    60    1
    52     2    16    1
    53    24    23    1
    54     6    65    2
    55    16    17   ar
    56    23    21   ar
    57    14    15    1
    58    14    63    1
    59    55    65    1
    60    55    56    1
    61    55    57    1
    62    65     7    1
    63    67    66    1
    64    60    57    1
    65    60    63    2
    66    17    18    1
    67    17    19   ar
    68    21    22    1
    69    21    19   ar
    70    57    59    1
    71    57    58    1
    72    63    64    1
    73     7    66    1
    74    66    68    1
    75    66    69    1
    76    19    20    1
