@<TRIPOS>MOLECULE
CSD_code = NEZHEG | q = 0 | S = 0 | Stoichiometry = C23H38BCoO2S3 | MND = 5
 68 70 0 0 0
SMALL
GASTEIGER

@<TRIPOS>ATOM
      1 CO          0.0642    3.9008    8.3977 Co.oh   1  UNL1        0.0000
      2 S           1.8631    2.4711    7.7844 S.3     1  UNL1        0.0000
      3 S          -1.6621    2.6012    6.9221 S.3     1  UNL1        0.0000
      4 S           0.5915    5.1850    6.5275 S.3     1  UNL1        0.0000
      5 B           0.6523    2.6030    5.1476 B       1  UNL1        0.0000
      6 C           1.2290    1.5901    6.3314 C.3     1  UNL1        0.0000
      7 H           2.0724    1.0100    5.9563 H       1  UNL1        0.0000
      8 H           0.4572    0.9044    6.6756 H       1  UNL1        0.0000
      9 C           2.3718    1.1371    8.9889 C.3     1  UNL1        0.0000
     10 C           1.2782    0.0969    9.1665 C.3     1  UNL1        0.0000
     11 H           1.5346   -0.5643    9.9929 H       1  UNL1        0.0000
     12 H           1.1675   -0.5112    8.2715 H       1  UNL1        0.0000
     13 H           0.3212    0.5642    9.3873 H       1  UNL1        0.0000
     14 C           2.6822    1.8547   10.2964 C.3     1  UNL1        0.0000
     15 H           3.0503    1.1451   11.0349 H       1  UNL1        0.0000
     16 H           1.7930    2.3390   10.6956 H       1  UNL1        0.0000
     17 H           3.4434    2.6162   10.1390 H       1  UNL1        0.0000
     18 C           3.6393    0.5018    8.4272 C.3     1  UNL1        0.0000
     19 H           4.0096   -0.2555    9.1159 H       1  UNL1        0.0000
     20 H           4.4144    1.2525    8.2889 H       1  UNL1        0.0000
     21 H           3.4467    0.0239    7.4694 H       1  UNL1        0.0000
     22 C          -0.9896    2.7528    5.2297 C.3     1  UNL1        0.0000
     23 H          -1.4985    1.9780    4.6571 H       1  UNL1        0.0000
     24 H          -1.3053    3.7208    4.8453 H       1  UNL1        0.0000
     25 C          -3.2603    3.5605    6.9095 C.3     1  UNL1        0.0000
     26 C          -3.8537    3.3567    8.2982 C.3     1  UNL1        0.0000
     27 H          -4.8238    3.8451    8.3670 H       1  UNL1        0.0000
     28 H          -3.1984    3.7807    9.0574 H       1  UNL1        0.0000
     29 H          -3.9811    2.2971    8.5071 H       1  UNL1        0.0000
     30 C          -3.0114    5.0362    6.6471 C.3     1  UNL1        0.0000
     31 H          -3.9526    5.5816    6.6956 H       1  UNL1        0.0000
     32 H          -2.5769    5.1991    5.6634 H       1  UNL1        0.0000
     33 H          -2.3326    5.4463    7.3945 H       1  UNL1        0.0000
     34 C          -4.1640    2.9515    5.8453 C.3     1  UNL1        0.0000
     35 H          -5.1401    3.4334    5.8692 H       1  UNL1        0.0000
     36 H          -4.2988    1.8874    6.0256 H       1  UNL1        0.0000
     37 H          -3.7425    3.0839    4.8518 H       1  UNL1        0.0000
     38 C           1.3483    4.0914    5.2838 C.3     1  UNL1        0.0000
     39 H           1.2400    4.6547    4.3572 H       1  UNL1        0.0000
     40 H           2.4063    4.0028    5.5241 H       1  UNL1        0.0000
     41 C           1.9375    6.4194    6.9346 C.3     1  UNL1        0.0000
     42 C           1.2446    7.5690    7.6560 C.3     1  UNL1        0.0000
     43 H           1.9605    8.3618    7.8647 H       1  UNL1        0.0000
     44 H           0.8229    7.2360    8.6004 H       1  UNL1        0.0000
     45 H           0.4437    7.9779    7.0441 H       1  UNL1        0.0000
     46 C           2.9849    5.7698    7.8237 C.3     1  UNL1        0.0000
     47 H           3.7424    6.5010    8.1019 H       1  UNL1        0.0000
     48 H           3.4775    4.9451    7.3131 H       1  UNL1        0.0000
     49 H           2.5221    5.3830    8.7338 H       1  UNL1        0.0000
     50 C           2.5442    6.9247    5.6318 C.3     1  UNL1        0.0000
     51 H           3.2437    7.7308    5.8474 H       1  UNL1        0.0000
     52 H           1.7693    7.3116    4.9734 H       1  UNL1        0.0000
     53 H           3.0868    6.1409    5.1103 H       1  UNL1        0.0000
     54 C          -0.4832    2.9685    9.7604 C.3     1  UNL1        0.0000
     55 C          -0.5317    5.2681    9.3309 C.3     1  UNL1        0.0000
     56 C           1.0378    1.9030    3.7369 C.ar    1  UNL1        0.0000
     57 C           0.5166    0.6422    3.4407 C.ar    1  UNL1        0.0000
     58 H          -0.1471    0.1682    4.1518 H       1  UNL1        0.0000
     59 C           0.8234   -0.0289    2.2719 C.ar    1  UNL1        0.0000
     60 H           0.3960   -1.0041    2.0793 H       1  UNL1        0.0000
     61 C           1.6794    0.5448    1.3476 C.ar    1  UNL1        0.0000
     62 H           1.9228    0.0273    0.4301 H       1  UNL1        0.0000
     63 C           2.2233    1.7869    1.6180 C.ar    1  UNL1        0.0000
     64 H           2.9003    2.2454    0.9092 H       1  UNL1        0.0000
     65 C           1.9063    2.4463    2.7938 C.ar    1  UNL1        0.0000
     66 H           2.3593    3.4115    2.9730 H       1  UNL1        0.0000
     67 O          -0.9969    2.4646   10.6552 O.3     1  UNL1        0.0000
     68 O          -1.0052    6.0061   10.0760 O.3     1  UNL1        0.0000
@<TRIPOS>BOND
     1    62    61    1
     2    64    63    1
     3    61    63   ar
     4    61    59   ar
     5    63    65   ar
     6    60    59    1
     7    59    57   ar
     8    65    66    1
     9    65    56   ar
    10    57    56   ar
    11    57    58    1
    12    56     5    1
    13    39    38    1
    14    23    22    1
    15    24    22    1
    16    37    34    1
    17    52    50    1
    18    53    50    1
    19     5    22    1
    20     5    38    1
    21     5     6    1
    22    22     3    1
    23    38    40    1
    24    38     4    1
    25    50    51    1
    26    50    41    1
    27    32    30    1
    28    34    35    1
    29    34    36    1
    30    34    25    1
    31     7     6    1
    32     6     8    1
    33     6     2    1
    34     4    41    1
    35     4     1    1
    36    30    31    1
    37    30    25    1
    38    30    33    1
    39    25     3    1
    40    25    26    1
    41     3     1    1
    42    41    42    1
    43    41    46    1
    44    45    42    1
    45    48    46    1
    46    21    18    1
    47    42    43    1
    48    42    44    1
    49     2     1    1
    50     2     9    1
    51    46    47    1
    52    46    49    1
    53    12    10    1
    54    20    18    1
    55    26    27    1
    56    26    29    1
    57    26    28    1
    58     1    55    1
    59     1    54    1
    60    18     9    1
    61    18    19    1
    62     9    10    1
    63     9    14    1
    64    10    13    1
    65    10    11    1
    66    55    68    1
    67    54    67    1
    68    17    14    1
    69    14    16    1
    70    14    15    1
