@<TRIPOS>MOLECULE
CSD_code = NIHYIP | q = 0 | S = 0 | Stoichiometry = C24H30ClCoN7P | MND = 4
 64 70 0 0 0
SMALL
GASTEIGER

@<TRIPOS>ATOM
      1 CO          4.4526   11.8072    3.3743 Co.oh   1  UNL1        0.0000
      2 CL          2.9365   10.6146    4.1567 Cl      1  UNL1        0.0000
      3 P           3.6696   13.8323    3.5538 P.3     1  UNL1        0.0000
      4 N           3.0006   17.0779    3.2009 N.3     1  UNL1        0.0000
      5 N           3.1741   14.3608    2.0220 N.3     1  UNL1        0.0000
      6 N           4.9325   14.9120    3.9349 N.3     1  UNL1        0.0000
      7 N           2.4586   14.4371    4.5434 N.3     1  UNL1        0.0000
      8 N           3.7886   11.2637    1.2601 N.pl3   1  UNL1        0.0000
      9 N           6.1145   12.3560    3.0456 N.pl3   1  UNL1        0.0000
     10 N           0.4342   13.5140    7.1875 N.ar    1  UNL1        0.0000
     11 C           2.4176   16.7009    1.9446 C.3     1  UNL1        0.0000
     12 H           3.1343   16.9486    1.1583 H       1  UNL1        0.0000
     13 H           1.5103   17.3001    1.7778 H       1  UNL1        0.0000
     14 C           2.0242   15.2124    1.8261 C.3     1  UNL1        0.0000
     15 H           1.2639   14.9896    2.5782 H       1  UNL1        0.0000
     16 H           1.5883   15.0339    0.8406 H       1  UNL1        0.0000
     17 C           4.4224   17.2409    3.3027 C.3     1  UNL1        0.0000
     18 H           4.6365   17.6059    4.3094 H       1  UNL1        0.0000
     19 H           4.7424   18.0135    2.5878 H       1  UNL1        0.0000
     20 C           5.2847   15.9882    3.0315 C.3     1  UNL1        0.0000
     21 H           5.1554   15.6946    1.9844 H       1  UNL1        0.0000
     22 H           6.3354   16.2527    3.1790 H       1  UNL1        0.0000
     23 C           2.2286   16.9078    4.4015 C.3     1  UNL1        0.0000
     24 H           1.1779   16.8457    4.1132 H       1  UNL1        0.0000
     25 H           2.3521   17.8011    5.0315 H       1  UNL1        0.0000
     26 C           2.5945   15.6859    5.2669 C.3     1  UNL1        0.0000
     27 H           3.6239   15.8030    5.6154 H       1  UNL1        0.0000
     28 H           1.9359   15.6605    6.1381 H       1  UNL1        0.0000
     29 C           3.7168   13.6492    0.8745 C.3     1  UNL1        0.0000
     30 H           4.7936   13.5207    1.0225 H       1  UNL1        0.0000
     31 H           3.5531   14.2494   -0.0252 H       1  UNL1        0.0000
     32 C           3.1074   12.2780    0.7150 C.3     1  UNL1        0.0000
     33 C           1.8985   12.0908    0.0593 C.2     1  UNL1        0.0000
     34 H           1.3761   12.9344   -0.3665 H       1  UNL1        0.0000
     35 C           1.3761   10.8125   -0.0477 C.2     1  UNL1        0.0000
     36 H           0.4339   10.6428   -0.5474 H       1  UNL1        0.0000
     37 C           2.0986    9.7581    0.4876 C.2     1  UNL1        0.0000
     38 H           1.7429    8.7427    0.4148 H       1  UNL1        0.0000
     39 C           3.2935   10.0347    1.1260 C.2     1  UNL1        0.0000
     40 H           3.8849    9.2350    1.5523 H       1  UNL1        0.0000
     41 C           6.0199   14.2296    4.6087 C.3     1  UNL1        0.0000
     42 H           5.5688   13.6226    5.4036 H       1  UNL1        0.0000
     43 H           6.6853   14.9642    5.0715 H       1  UNL1        0.0000
     44 C           6.8053   13.3200    3.6945 C.3     1  UNL1        0.0000
     45 C           8.1658   13.4901    3.5214 C.2     1  UNL1        0.0000
     46 H           8.6730   14.2760    4.0614 H       1  UNL1        0.0000
     47 C           8.8724   12.6545    2.6682 C.2     1  UNL1        0.0000
     48 H           9.9344   12.7736    2.5260 H       1  UNL1        0.0000
     49 C           8.1605   11.6643    2.0001 C.2     1  UNL1        0.0000
     50 H           8.6541   10.9882    1.3198 H       1  UNL1        0.0000
     51 C           6.8049   11.5576    2.2072 C.2     1  UNL1        0.0000
     52 H           6.2210   10.8132    1.6800 H       1  UNL1        0.0000
     53 C           1.3852   13.5581    4.9689 C.3     1  UNL1        0.0000
     54 H           1.4585   12.6362    4.3816 H       1  UNL1        0.0000
     55 H           0.4088   14.0231    4.7890 H       1  UNL1        0.0000
     56 C           1.4792   13.2068    6.4307 C.ar    1  UNL1        0.0000
     57 C           2.6253   12.6084    6.9443 C.ar    1  UNL1        0.0000
     58 H           3.4443   12.3710    6.2817 H       1  UNL1        0.0000
     59 C           2.6677   12.3029    8.2914 C.ar    1  UNL1        0.0000
     60 H           3.5370   11.8260    8.7215 H       1  UNL1        0.0000
     61 C           1.5695   12.6130    9.0814 C.ar    1  UNL1        0.0000
     62 H           1.5586   12.3889   10.1371 H       1  UNL1        0.0000
     63 C           0.4811   13.2179    8.4760 C.ar    1  UNL1        0.0000
     64 H          -0.4009   13.4847    9.0449 H       1  UNL1        0.0000
@<TRIPOS>BOND
     1    36    35    1
     2    34    33    1
     3    35    33    2
     4    35    37    1
     5    31    29    1
     6    33    32    1
     7    38    37    1
     8    37    39    2
     9    32    29    1
    10    32     8    1
    11    16    14    1
    12    29    30    1
    13    29     5    1
    14    39     8    1
    15    39    40    1
    16    12    11    1
    17     8     1    1
    18    50    49    1
    19    52    51    1
    20    13    11    1
    21    14    11    1
    22    14     5    1
    23    14    15    1
    24    11     4    1
    25    21    20    1
    26    49    51    2
    27    49    47    1
    28     5     3    1
    29    51     9    1
    30    48    47    1
    31    19    17    1
    32    47    45    2
    33    20    22    1
    34    20    17    1
    35    20     6    1
    36     9     1    1
    37     9    44    1
    38     4    17    1
    39     4    23    1
    40    17    18    1
    41     1     3    1
    42     1     2    1
    43    45    44    1
    44    45    46    1
    45     3     6    1
    46     3     7    1
    47    44    41    1
    48     6    41    1
    49    24    23    1
    50    54    53    1
    51    23    25    1
    52    23    26    1
    53     7    53    1
    54     7    26    1
    55    41    43    1
    56    41    42    1
    57    55    53    1
    58    53    56    1
    59    26    27    1
    60    26    28    1
    61    58    57    1
    62    56    57   ar
    63    56    10   ar
    64    57    59   ar
    65    10    63   ar
    66    59    60    1
    67    59    61   ar
    68    63    64    1
    69    63    61   ar
    70    61    62    1
