@<TRIPOS>MOLECULE
CSD_code = NIMNAB | q = 1 | S = 0 | Stoichiometry = C14H14CoN8O2(1+) | MND = 6
 39 44 0 0 0
SMALL
GASTEIGER

@<TRIPOS>ATOM
      1 CO          0.6049    4.4993    2.6359 Co.oh   1  UNL1        0.0000
      2 N          -0.1739    6.2167    2.4576 N.pl3   1  UNL1        0.0000
      3 C          -0.7801    6.9830    3.3600 C.3     1  UNL1        0.0000
      4 H          -0.7967    6.6221    4.3791 H       1  UNL1        0.0000
      5 C          -1.3745    8.1889    3.0370 C.2     1  UNL1        0.0000
      6 H          -1.8561    8.7708    3.8049 H       1  UNL1        0.0000
      7 C          -1.3419    8.6241    1.7162 C.2     1  UNL1        0.0000
      8 H          -1.8022    9.5583    1.4356 H       1  UNL1        0.0000
      9 C          -0.7143    7.8382    0.7725 C.2     1  UNL1        0.0000
     10 H          -0.6673    8.1317   -0.2636 H       1  UNL1        0.0000
     11 C          -0.1340    6.6278    1.1637 C.2     1  UNL1        0.0000
     12 C           0.5195    5.7185    0.2739 C.3     1  UNL1        0.0000
     13 H           0.6112    5.8822   -0.7902 H       1  UNL1        0.0000
     14 N           0.9597    4.6509    0.8631 N.pl3   1  UNL1        0.0000
     15 N           1.5533    3.6414    0.2832 N.2     1  UNL1        0.0000
     16 C           1.7733    2.6722    1.1919 C.2     1  UNL1        0.0000
     17 O           1.4466    2.8069    2.4142 O.2     1  UNL1        0.0000
     18 N           2.3667    1.5516    0.7757 N.pl3   1  UNL1        0.0000
     19 H           2.4916    0.7873    1.4174 H       1  UNL1        0.0000
     20 H           2.5801    1.4371   -0.1994 H       1  UNL1        0.0000
     21 N           2.2284    5.2087    3.3061 N.pl3   1  UNL1        0.0000
     22 C           3.2765    5.7133    2.6612 C.3     1  UNL1        0.0000
     23 H           3.1965    5.8001    1.5864 H       1  UNL1        0.0000
     24 C           4.4305    6.1128    3.3096 C.2     1  UNL1        0.0000
     25 H           5.2532    6.5123    2.7404 H       1  UNL1        0.0000
     26 C           4.5058    5.9836    4.6926 C.2     1  UNL1        0.0000
     27 H           5.3962    6.2824    5.2230 H       1  UNL1        0.0000
     28 C           3.4238    5.4639    5.3717 C.2     1  UNL1        0.0000
     29 H           3.4372    5.3414    6.4425 H       1  UNL1        0.0000
     30 C           2.2864    5.0767    4.6566 C.2     1  UNL1        0.0000
     31 C           1.1164    4.5025    5.2458 C.3     1  UNL1        0.0000
     32 H           1.0128    4.3042    6.3029 H       1  UNL1        0.0000
     33 N           0.1997    4.2029    4.3794 N.pl3   1  UNL1        0.0000
     34 N          -0.9456    3.6292    4.6385 N.2     1  UNL1        0.0000
     35 C          -1.5901    3.3796    3.4827 C.2     1  UNL1        0.0000
     36 O          -1.1022    3.7062    2.3540 O.2     1  UNL1        0.0000
     37 N          -2.7822    2.7835    3.5509 N.pl3   1  UNL1        0.0000
     38 H          -3.2609    2.5307    2.7031 H       1  UNL1        0.0000
     39 H          -3.1390    2.4893    4.4429 H       1  UNL1        0.0000
@<TRIPOS>BOND
     1    13    12    1
     2    10     9    1
     3    20    18    1
     4    12    14    1
     5    12    11    1
     6    15    14    1
     7    15    16    2
     8     9    11    2
     9     9     7    1
    10    18    16    1
    11    18    19    1
    12    14     1    1
    13    11     2    1
    14    16    17    1
    15     8     7    1
    16    23    22    1
    17     7     5    2
    18    36     1    1
    19    36    35    1
    20    17     1    1
    21     2     1    1
    22     2     3    1
    23     1    21    1
    24     1    33    1
    25    22    21    1
    26    22    24    1
    27    38    37    1
    28    25    24    1
    29     5     3    1
    30     5     6    1
    31    21    30    1
    32    24    26    2
    33     3     4    1
    34    35    37    1
    35    35    34    2
    36    37    39    1
    37    33    34    1
    38    33    31    1
    39    30    31    1
    40    30    28    2
    41    26    27    1
    42    26    28    1
    43    31    32    1
    44    28    29    1
