@<TRIPOS>MOLECULE
CSD_code = NIPPUA | q = 1 | S = 0 | Stoichiometry = C22H18CoN8S2(1+) | MND = 6
 51 58 0 0 0
SMALL
GASTEIGER

@<TRIPOS>ATOM
      1 CO          4.5673    4.2674    3.9185 Co.oh   1  UNL1        0.0000
      2 S           5.0169    3.9088    6.1619 S.3     1  UNL1        0.0000
      3 S           6.5749    3.3041    3.2821 S.3     1  UNL1        0.0000
      4 N           4.4050    4.9589    2.0259 N.pl3   1  UNL1        0.0000
      5 N           2.6665    4.6859    4.4658 N.pl3   1  UNL1        0.0000
      6 C           5.7641    5.4507    6.3604 C.2     1  UNL1        0.0000
      7 C           5.8837    1.7322    3.1205 C.2     1  UNL1        0.0000
      8 N           5.4765    5.8660    4.1853 N.pl3   1  UNL1        0.0000
      9 N           3.9181    2.5291    3.8189 N.pl3   1  UNL1        0.0000
     10 C           5.7877    6.5165    3.1023 C.3     1  UNL1        0.0000
     11 H           6.4426    7.3763    3.1333 H       1  UNL1        0.0000
     12 C           2.7349    2.3463    4.3285 C.3     1  UNL1        0.0000
     13 H           2.3264    1.3532    4.4548 H       1  UNL1        0.0000
     14 N           5.9523    6.2611    5.3449 N.2     1  UNL1        0.0000
     15 N           4.6323    1.4937    3.4380 N.2     1  UNL1        0.0000
     16 C           5.2146    6.0212    1.8956 C.2     1  UNL1        0.0000
     17 C           2.0326    3.5274    4.7045 C.2     1  UNL1        0.0000
     18 N           6.1791    5.8088    7.5751 N.pl3   1  UNL1        0.0000
     19 H           6.6735    6.6771    7.6949 H       1  UNL1        0.0000
     20 H           6.1146    5.1611    8.3415 H       1  UNL1        0.0000
     21 N           6.6545    0.7362    2.6849 N.pl3   1  UNL1        0.0000
     22 H           6.2831   -0.1982    2.6443 H       1  UNL1        0.0000
     23 H           7.6335    0.8923    2.5172 H       1  UNL1        0.0000
     24 C           5.5044    6.6152    0.6477 C.2     1  UNL1        0.0000
     25 H           6.1736    7.4595    0.6204 H       1  UNL1        0.0000
     26 C           0.7563    3.4620    5.3052 C.2     1  UNL1        0.0000
     27 H           0.3140    2.4939    5.4743 H       1  UNL1        0.0000
     28 C           4.9564    6.0905   -0.4823 C.2     1  UNL1        0.0000
     29 H           5.1807    6.4967   -1.4568 H       1  UNL1        0.0000
     30 C           0.1363    4.6149    5.6779 C.2     1  UNL1        0.0000
     31 H          -0.8245    4.6029    6.1695 H       1  UNL1        0.0000
     32 C           4.0630    5.0029   -0.3748 C.2     1  UNL1        0.0000
     33 C           0.7568    5.8523    5.4011 C.2     1  UNL1        0.0000
     34 C           3.7849    4.4693    0.9199 C.2     1  UNL1        0.0000
     35 C           2.0320    5.8516    4.7591 C.3     1  UNL1        0.0000
     36 C           2.8336    3.4350    1.0107 C.2     1  UNL1        0.0000
     37 H           2.5669    3.0529    1.9798 H       1  UNL1        0.0000
     38 C           2.5972    7.0975    4.4258 C.2     1  UNL1        0.0000
     39 H           3.5314    7.1228    3.8937 H       1  UNL1        0.0000
     40 C           2.2300    2.9270   -0.1087 C.2     1  UNL1        0.0000
     41 H           1.5023    2.1363   -0.0101 H       1  UNL1        0.0000
     42 C           1.9681    8.2703    4.7484 C.2     1  UNL1        0.0000
     43 H           2.4228    9.2113    4.4796 H       1  UNL1        0.0000
     44 C           2.5397    3.4236   -1.3815 C.2     1  UNL1        0.0000
     45 H           2.0614    3.0035   -2.2520 H       1  UNL1        0.0000
     46 C           0.7377    8.2663    5.4183 C.2     1  UNL1        0.0000
     47 H           0.2628    9.2004    5.6732 H       1  UNL1        0.0000
     48 C           3.4346    4.4504   -1.5064 C.3     1  UNL1        0.0000
     49 H           3.6703    4.8641   -2.4751 H       1  UNL1        0.0000
     50 C           0.1417    7.0749    5.7287 C.2     1  UNL1        0.0000
     51 H          -0.8170    7.0483    6.2242 H       1  UNL1        0.0000
@<TRIPOS>BOND
     1    49    48    1
     2    45    44    1
     3    48    44    1
     4    48    32    1
     5    29    28    1
     6    44    40    2
     7    28    32    2
     8    28    24    1
     9    32    34    1
    10    40    41    1
    11    40    36    1
    12    25    24    1
    13    24    16    2
    14    34    36    2
    15    34     4    1
    16    36    37    1
    17    16     4    1
    18    16    10    1
    19     4     1    1
    20    23    21    1
    21    22    21    1
    22    21     7    1
    23    10    11    1
    24    10     8    1
    25     7     3    1
    26     7    15    2
    27     3     1    1
    28    15     9    1
    29     9     1    1
    30     9    12    1
    31    39    38    1
    32     1     8    1
    33     1     5    1
    34     1     2    1
    35     8    14    1
    36    12    13    1
    37    12    17    1
    38    38    42    2
    39    38    35    1
    40     5    17    1
    41     5    35    1
    42    43    42    1
    43    17    26    2
    44    42    46    1
    45    35    33    1
    46    26    27    1
    47    26    30    1
    48    14     6    2
    49    33    30    2
    50    33    50    1
    51    46    47    1
    52    46    50    2
    53    30    31    1
    54    50    51    1
    55     2     6    1
    56     6    18    1
    57    18    19    1
    58    18    20    1
