@<TRIPOS>MOLECULE
CSD_code = NIZNEP | q = 0 | S = 0 | Stoichiometry = C5H15CoN6O6 | MND = 6
 33 34 0 0 0
SMALL
GASTEIGER

@<TRIPOS>ATOM
      1 CO          1.7299    0.0835    2.7825 Co.oh   1  UNL1        0.0000
      2 O          -0.3962    0.1448    1.1841 O.2     1  UNL1        0.0000
      3 O           0.0790   -1.8284    1.9110 O.2     1  UNL1        0.0000
      4 O           1.8645   -1.7043    4.5742 O.2     1  UNL1        0.0000
      5 O           0.3012   -0.2427    4.8738 O.2     1  UNL1        0.0000
      6 O           4.3252    0.4491    3.2778 O.2     1  UNL1        0.0000
      7 O           3.0132    1.5445    4.5840 O.2     1  UNL1        0.0000
      8 N           2.3714    0.9717    0.9150 N.4     1  UNL1        0.0000
      9 N           2.8351   -1.5004    2.0526 N.4     1  UNL1        0.0000
     10 N           0.6605    1.8193    3.1527 N.4     1  UNL1        0.0000
     11 N           0.2786   -0.6219    1.8785 N.pl3   1  UNL1        0.0000
     12 N           1.2314   -0.7244    4.2758 N.pl3   1  UNL1        0.0000
     13 N           3.2009    0.7722    3.6536 N.pl3   1  UNL1        0.0000
     14 C           3.4459    0.1327    0.3751 C.3     1  UNL1        0.0000
     15 C           3.0865   -1.3312    0.6185 C.3     1  UNL1        0.0000
     16 C           2.7053    2.3960    0.8827 C.3     1  UNL1        0.0000
     17 C           1.5161    3.2514    1.3127 C.3     1  UNL1        0.0000
     18 C           1.1953    3.1400    2.8011 C.3     1  UNL1        0.0000
     19 H           1.5475    0.8542    0.3191 H       1  UNL1        0.0000
     20 H           3.6100    0.3202   -0.6938 H       1  UNL1        0.0000
     21 H           4.3638    0.3688    0.9198 H       1  UNL1        0.0000
     22 H           3.8977   -1.9790    0.2689 H       1  UNL1        0.0000
     23 H           2.1781   -1.5909    0.0675 H       1  UNL1        0.0000
     24 H           3.7298   -1.4929    2.5493 H       1  UNL1        0.0000
     25 H           2.3886   -2.4007    2.2345 H       1  UNL1        0.0000
     26 H           3.5545    2.5722    1.5481 H       1  UNL1        0.0000
     27 H           3.0077    2.6885   -0.1334 H       1  UNL1        0.0000
     28 H           1.7423    4.2940    1.0879 H       1  UNL1        0.0000
     29 H           0.6361    2.9633    0.7324 H       1  UNL1        0.0000
     30 H           0.4618    3.9139    3.0584 H       1  UNL1        0.0000
     31 H           2.0937    3.3191    3.3953 H       1  UNL1        0.0000
     32 H          -0.2243    1.6956    2.6508 H       1  UNL1        0.0000
     33 H           0.4378    1.8220    4.1507 H       1  UNL1        0.0000
@<TRIPOS>BOND
     1    20    14    1
     2    27    16    1
     3    23    15    1
     4    22    15    1
     5    19     8    1
     6    14    15    1
     7    14     8    1
     8    14    21    1
     9    15     9    1
    10    29    17    1
    11    16     8    1
    12    16    17    1
    13    16    26    1
    14     8     1    1
    15    28    17    1
    16     2    11    2
    17    17    18    1
    18    11     3    2
    19    11     1    1
    20     9    25    1
    21     9    24    1
    22     9     1    1
    23    32    10    1
    24     1    10    1
    25     1    13    1
    26     1    12    1
    27    18    30    1
    28    18    10    1
    29    18    31    1
    30    10    33    1
    31     6    13    2
    32    13     7    2
    33    12     4    2
    34    12     5    2
