@<TRIPOS>MOLECULE
CSD_code = NOFKOJ | q = 0 | S = 0 | Stoichiometry = C15H12CoN7S3 | MND = 6
 38 43 0 0 0
SMALL
GASTEIGER

@<TRIPOS>ATOM
      1 CO          1.6475    1.9552    2.6353 Co.oh   1  UNL1        0.0000
      2 N           2.7378    0.4706    2.0855 N.pl3   1  UNL1        0.0000
      3 C           3.9632    0.5830    1.5630 C.3     1  UNL1        0.0000
      4 H           4.3753    1.5815    1.5556 H       1  UNL1        0.0000
      5 C           4.6652   -0.4803    1.0422 C.2     1  UNL1        0.0000
      6 H           5.6491   -0.3246    0.6322 H       1  UNL1        0.0000
      7 C           4.0768   -1.7451    1.0446 C.2     1  UNL1        0.0000
      8 H           4.5966   -2.5970    0.6343 H       1  UNL1        0.0000
      9 C           2.8218   -1.8817    1.5847 C.2     1  UNL1        0.0000
     10 H           2.3106   -2.8300    1.6223 H       1  UNL1        0.0000
     11 C           2.1791   -0.7542    2.1083 C.2     1  UNL1        0.0000
     12 S           0.5846   -0.8970    2.7634 S.3     1  UNL1        0.0000
     13 N           0.3570    0.6819    3.3397 N.3     1  UNL1        0.0000
     14 N           2.4620    1.9845    4.4472 N.pl3   1  UNL1        0.0000
     15 C           3.6352    2.5433    4.7517 C.3     1  UNL1        0.0000
     16 H           4.2061    2.9154    3.9130 H       1  UNL1        0.0000
     17 C           4.0970    2.6670    6.0437 C.2     1  UNL1        0.0000
     18 H           5.0512    3.1301    6.2322 H       1  UNL1        0.0000
     19 C           3.3055    2.1938    7.0906 C.2     1  UNL1        0.0000
     20 H           3.6345    2.2851    8.1143 H       1  UNL1        0.0000
     21 C           2.1030    1.5997    6.7910 C.2     1  UNL1        0.0000
     22 H           1.4507    1.2024    7.5516 H       1  UNL1        0.0000
     23 C           1.7137    1.4956    5.4513 C.2     1  UNL1        0.0000
     24 S           0.1971    0.7695    5.0193 S.3     1  UNL1        0.0000
     25 N           0.3960    3.3155    2.9386 N.pl3   1  UNL1        0.0000
     26 C           0.0389    4.1606    3.8991 C.3     1  UNL1        0.0000
     27 H           0.6304    4.1541    4.8058 H       1  UNL1        0.0000
     28 C          -1.0316    5.0163    3.7486 C.2     1  UNL1        0.0000
     29 H          -1.2946    5.6939    4.5439 H       1  UNL1        0.0000
     30 C          -1.7563    4.9910    2.5556 C.2     1  UNL1        0.0000
     31 H          -2.5961    5.6554    2.4193 H       1  UNL1        0.0000
     32 C          -1.3904    4.1189    1.5574 C.2     1  UNL1        0.0000
     33 H          -1.9121    4.0601    0.6164 H       1  UNL1        0.0000
     34 C          -0.2932    3.2838    1.7822 C.2     1  UNL1        0.0000
     35 S           0.3779    2.1308    0.7135 S.3     1  UNL1        0.0000
     36 N           2.8742    3.2180    1.9987 N.2     1  UNL1        0.0000
     37 N           2.7442    4.3334    1.6597 N.2     1  UNL1        0.0000
     38 N           2.7657    5.4171    1.3265 N.2     1  UNL1        0.0000
@<TRIPOS>BOND
     1    33    32    1
     2     6     5    1
     3     8     7    1
     4    35    34    1
     5    35     1    1
     6     5     7    2
     7     5     3    1
     8     7     9    1
     9    38    37    2
    10     4     3    1
    11    32    34    2
    12    32    30    1
    13     3     2    1
    14     9    10    1
    15     9    11    2
    16    37    36    2
    17    34    25    1
    18    36     1    1
    19     2    11    1
    20     2     1    1
    21    11    12    1
    22    31    30    1
    23    30    28    2
    24     1    25    1
    25     1    13    1
    26     1    14    1
    27    12    13    1
    28    25    26    1
    29    13    24    1
    30    28    26    1
    31    28    29    1
    32    26    27    1
    33    16    15    1
    34    14    15    1
    35    14    23    1
    36    15    17    1
    37    24    23    1
    38    23    21    2
    39    17    18    1
    40    17    19    2
    41    21    19    1
    42    21    22    1
    43    19    20    1
