@<TRIPOS>MOLECULE
CSD_code = NOKCOI | q = 1 | S = 0 | Stoichiometry = C25H29CoNO2(1+) | MND = 8
 58 62 0 0 0
SMALL
GASTEIGER

@<TRIPOS>ATOM
      1 CO          2.4062   13.7023    9.3236 Co.oh   1  UNL1        0.0000
      2 N           4.1914   13.1513    8.7029 N.pl3   1  UNL1        0.0000
      3 O           3.0353   16.1318   10.5706 O.3     1  UNL1        0.0000
      4 O           2.6252   15.4876    8.5050 O.3     1  UNL1        0.0000
      5 C           4.4415   13.4694    7.4278 C.3     1  UNL1        0.0000
      6 H           3.7177   14.1068    6.9388 H       1  UNL1        0.0000
      7 C           5.5572   13.0372    6.7400 C.2     1  UNL1        0.0000
      8 H           5.7032   13.3318    5.7138 H       1  UNL1        0.0000
      9 C           6.4713   12.2249    7.3966 C.2     1  UNL1        0.0000
     10 H           7.3576   11.8671    6.8967 H       1  UNL1        0.0000
     11 C           6.2178   11.8915    8.7115 C.2     1  UNL1        0.0000
     12 H           6.9065   11.2778    9.2699 H       1  UNL1        0.0000
     13 C           5.0700   12.3680    9.3491 C.2     1  UNL1        0.0000
     14 C           4.8459   11.9870   10.7539 C.ar    1  UNL1        0.0000
     15 C           4.9837   10.6454   11.1133 C.ar    1  UNL1        0.0000
     16 H           5.2064    9.9117   10.3524 H       1  UNL1        0.0000
     17 C           4.8200   10.2453   12.4254 C.ar    1  UNL1        0.0000
     18 H           4.9199    9.2034   12.6869 H       1  UNL1        0.0000
     19 C           4.5388   11.1879   13.4018 C.ar    1  UNL1        0.0000
     20 H           4.4178   10.8834   14.4295 H       1  UNL1        0.0000
     21 C           4.4285   12.5228   13.0569 C.ar    1  UNL1        0.0000
     22 H           4.2341   13.2586   13.8227 H       1  UNL1        0.0000
     23 C           4.5817   12.9396   11.7413 C.ar    1  UNL1        0.0000
     24 C           4.4796   14.3938   11.3932 C.3     1  UNL1        0.0000
     25 H           5.2020   14.6587   10.6167 H       1  UNL1        0.0000
     26 H           4.6973   15.0044   12.2746 H       1  UNL1        0.0000
     27 C           3.0617   14.7108   10.9141 C.3     1  UNL1        0.0000
     28 H           2.3904   14.6354   11.7780 H       1  UNL1        0.0000
     29 C           2.8497   16.3898    9.3168 C.3     1  UNL1        0.0000
     30 C           2.9156   17.8279    8.9193 C.3     1  UNL1        0.0000
     31 H           2.6687   17.9366    7.8677 H       1  UNL1        0.0000
     32 H           3.9179   18.2096    9.1044 H       1  UNL1        0.0000
     33 H           2.2265   18.4079    9.5292 H       1  UNL1        0.0000
     34 C           1.6363   11.7666    9.1014 C.2     1  UNL1        0.0000
     35 C           1.1875   12.5606    8.0020 C.2     1  UNL1        0.0000
     36 C           0.4313   13.6384    8.5248 C.2     1  UNL1        0.0000
     37 C           0.4551   13.5554    9.9564 C.3     1  UNL1        0.0000
     38 C           1.1806   12.3725   10.3157 C.2     1  UNL1        0.0000
     39 C           2.2565   10.4176    8.9729 C.3     1  UNL1        0.0000
     40 H           1.4765    9.7043    8.7011 H       1  UNL1        0.0000
     41 H           2.7024   10.0933    9.9082 H       1  UNL1        0.0000
     42 H           3.0129   10.3920    8.1907 H       1  UNL1        0.0000
     43 C           1.2988   12.1875    6.5599 C.3     1  UNL1        0.0000
     44 H           0.4731   11.5264    6.2921 H       1  UNL1        0.0000
     45 H           2.2283   11.6605    6.3562 H       1  UNL1        0.0000
     46 H           1.2451   13.0649    5.9203 H       1  UNL1        0.0000
     47 C          -0.3337   14.6319    7.7234 C.3     1  UNL1        0.0000
     48 H          -1.2565   14.1660    7.3736 H       1  UNL1        0.0000
     49 H           0.2281   14.9558    6.8499 H       1  UNL1        0.0000
     50 H          -0.5968   15.5043    8.3152 H       1  UNL1        0.0000
     51 C          -0.3857   14.3839   10.8731 C.3     1  UNL1        0.0000
     52 H          -1.4254   14.0647   10.7899 H       1  UNL1        0.0000
     53 H          -0.3396   15.4406   10.6167 H       1  UNL1        0.0000
     54 H          -0.0793   14.2647   11.9085 H       1  UNL1        0.0000
     55 C           1.2167   11.7455   11.6695 C.3     1  UNL1        0.0000
     56 H           0.3211   11.1360   11.7998 H       1  UNL1        0.0000
     57 H           1.2325   12.4925   12.4582 H       1  UNL1        0.0000
     58 H           2.0853   11.1048   11.7896 H       1  UNL1        0.0000
@<TRIPOS>BOND
     1     8     7    1
     2    46    43    1
     3    44    43    1
     4    45    43    1
     5    43    35    1
     6     7     9    2
     7     7     5    1
     8    49    47    1
     9    10     9    1
    10     6     5    1
    11    48    47    1
    12     9    11    1
    13     5     2    1
    14    47    50    1
    15    47    36    1
    16    31    30    1
    17    35    36    2
    18    35    34    1
    19    42    39    1
    20     4    29    1
    21     4     1    1
    22    36    37    1
    23    40    39    1
    24     2     1    1
    25     2    13    1
    26    11    12    1
    27    11    13    2
    28    30    32    1
    29    30    29    1
    30    30    33    1
    31    39    34    1
    32    39    41    1
    33    34    38    2
    34    29     3    1
    35     1    37    1
    36     1    27    1
    37    13    14    1
    38    37    38    1
    39    37    51    1
    40    38    55    1
    41    16    15    1
    42     3    27    1
    43    53    51    1
    44    25    24    1
    45    14    15   ar
    46    14    23   ar
    47    52    51    1
    48    51    54    1
    49    27    24    1
    50    27    28    1
    51    15    17   ar
    52    24    23    1
    53    24    26    1
    54    55    58    1
    55    55    56    1
    56    55    57    1
    57    23    21   ar
    58    17    18    1
    59    17    19   ar
    60    21    19   ar
    61    21    22    1
    62    19    20    1
