@<TRIPOS>MOLECULE
CSD_code = NOWVOK | q = -1 | S = 0 | Stoichiometry = C34H36CoN4O8(1-) | MND = 6
 83 90 0 0 0
SMALL
GASTEIGER

@<TRIPOS>ATOM
      1 CO          6.5944   18.7604   13.9990 Co.oh   1  UNL1        0.0000
      2 O           7.3890   20.2980   14.7147 O.3     1  UNL1        0.0000
      3 O           5.3772   18.8560   15.4264 O.3     1  UNL1        0.0000
      4 O           1.0373   20.9477   12.9699 O.3     1  UNL1        0.0000
      5 O           9.8124   17.3655   18.7401 O.3     1  UNL1        0.0000
      6 O           8.1938   19.2398   10.4859 O.2     1  UNL1        0.0000
      7 O           5.8389   15.0235   13.2219 O.2     1  UNL1        0.0000
      8 O           7.8692   18.6802   12.6055 O.3     1  UNL1        0.0000
      9 O           5.7272   17.2371   13.2809 O.3     1  UNL1        0.0000
     10 N           8.7793   21.6417   17.6943 N.ar    1  UNL1        0.0000
     11 N           3.1344   21.1087   17.0186 N.ar    1  UNL1        0.0000
     12 N           5.6102   19.9519   12.8564 N.4     1  UNL1        0.0000
     13 N           7.5795   17.5233   15.0927 N.4     1  UNL1        0.0000
     14 C           8.0801   21.5041   16.5907 C.ar    1  UNL1        0.0000
     15 C           7.2282   22.6505   16.1443 C.3     1  UNL1        0.0000
     16 C           4.7962   19.6650   18.0105 C.3     1  UNL1        0.0000
     17 C           4.0772   20.2154   16.8184 C.ar    1  UNL1        0.0000
     18 C           8.0881   20.3135   15.8061 C.ar    1  UNL1        0.0000
     19 C           4.4568   19.7647   15.5209 C.ar    1  UNL1        0.0000
     20 C           8.8848   19.2429   16.2733 C.ar    1  UNL1        0.0000
     21 C           3.7697   20.3280   14.4209 C.ar    1  UNL1        0.0000
     22 C           9.6357   19.4239   17.4382 C.ar    1  UNL1        0.0000
     23 C          10.5251   18.3491   18.0062 C.3     1  UNL1        0.0000
     24 C           1.9452   21.8691   13.5505 C.3     1  UNL1        0.0000
     25 C           2.7659   21.2696   14.6619 C.ar    1  UNL1        0.0000
     26 C           9.5363   20.6351   18.1072 C.ar    1  UNL1        0.0000
     27 C           2.4932   21.6184   15.9768 C.ar    1  UNL1        0.0000
     28 C           4.1544   19.8752   13.0341 C.3     1  UNL1        0.0000
     29 C           8.9280   17.9693   15.4626 C.3     1  UNL1        0.0000
     30 C           7.5504   16.2117   14.4354 C.3     1  UNL1        0.0000
     31 C           6.0536   19.7450   11.4744 C.3     1  UNL1        0.0000
     32 C           7.5177   19.1856   11.4988 C.2     1  UNL1        0.0000
     33 C           6.2468   16.1184   13.5703 C.2     1  UNL1        0.0000
     34 C           7.6508   15.0288   15.4128 C.3     1  UNL1        0.0000
     35 C           5.9663   21.0206   10.6184 C.3     1  UNL1        0.0000
     36 C           6.8666   15.2690   16.6725 C.ar    1  UNL1        0.0000
     37 C           6.6089   22.1786   11.3278 C.ar    1  UNL1        0.0000
     38 C           7.4915   15.2445   17.9135 C.ar    1  UNL1        0.0000
     39 C           5.8450   23.0641   12.0806 C.ar    1  UNL1        0.0000
     40 C           6.7787   15.5088   19.0716 C.ar    1  UNL1        0.0000
     41 C           6.4428   24.0960   12.7831 C.ar    1  UNL1        0.0000
     42 C           5.4280   15.7999   19.0022 C.ar    1  UNL1        0.0000
     43 C           7.8173   24.2511   12.7456 C.ar    1  UNL1        0.0000
     44 C           8.5869   23.3740   11.9989 C.ar    1  UNL1        0.0000
     45 C           4.7918   15.8138   17.7708 C.ar    1  UNL1        0.0000
     46 C           5.5037   15.5504   16.6152 C.ar    1  UNL1        0.0000
     47 C           7.9886   22.3460   11.2942 C.ar    1  UNL1        0.0000
     48 H           7.5164   22.9568   15.1398 H       1  UNL1        0.0000
     49 H           4.7510   18.5769   18.0053 H       1  UNL1        0.0000
     50 H           7.3383   23.4812   16.8351 H       1  UNL1        0.0000
     51 H           6.1845   22.3375   16.1074 H       1  UNL1        0.0000
     52 H           4.3512   20.0550   18.9210 H       1  UNL1        0.0000
     53 H           5.8472   19.9521   17.9654 H       1  UNL1        0.0000
     54 H           1.3310   22.6856   13.9393 H       1  UNL1        0.0000
     55 H          11.2353   18.7924   18.7108 H       1  UNL1        0.0000
     56 H           1.4614   20.0827   12.9481 H       1  UNL1        0.0000
     57 H          11.1054   17.8629   17.2066 H       1  UNL1        0.0000
     58 H           2.5968   22.2862   12.7646 H       1  UNL1        0.0000
     59 H           8.9230   17.2958   18.3733 H       1  UNL1        0.0000
     60 H           1.7274   22.3467   16.2099 H       1  UNL1        0.0000
     61 H          10.0900   20.8101   19.0204 H       1  UNL1        0.0000
     62 H           3.6579   20.4852   12.2706 H       1  UNL1        0.0000
     63 H           3.8694   18.8250   12.8916 H       1  UNL1        0.0000
     64 H           9.4718   18.1568   14.5282 H       1  UNL1        0.0000
     65 H           9.4382   17.1734   16.0157 H       1  UNL1        0.0000
     66 H           7.0208   17.4439   15.9507 H       1  UNL1        0.0000
     67 H           5.9137   20.8932   13.1352 H       1  UNL1        0.0000
     68 H           5.4440   18.9491   11.0303 H       1  UNL1        0.0000
     69 H           8.3731   16.1741   13.7120 H       1  UNL1        0.0000
     70 H           7.2398   14.1651   14.8801 H       1  UNL1        0.0000
     71 H           6.4992   20.8079    9.6894 H       1  UNL1        0.0000
     72 H           4.9238   21.2519   10.3822 H       1  UNL1        0.0000
     73 H           8.6934   14.8146   15.6615 H       1  UNL1        0.0000
     74 H           8.5454   15.0105   17.9808 H       1  UNL1        0.0000
     75 H           4.7688   22.9559   12.1148 H       1  UNL1        0.0000
     76 H           7.2855   15.4938   20.0256 H       1  UNL1        0.0000
     77 H           5.8344   24.7704   13.3687 H       1  UNL1        0.0000
     78 H           4.8721   16.0152   19.9034 H       1  UNL1        0.0000
     79 H           8.2874   25.0505   13.3006 H       1  UNL1        0.0000
     80 H           3.7361   16.0347   17.7097 H       1  UNL1        0.0000
     81 H           9.6609   23.4892   11.9717 H       1  UNL1        0.0000
     82 H           5.0044   15.5633   15.6594 H       1  UNL1        0.0000
     83 H           8.5872   21.6534   10.7229 H       1  UNL1        0.0000
@<TRIPOS>BOND
     1    71    35    1
     2    72    35    1
     3     6    32    2
     4    35    37    1
     5    35    31    1
     6    83    47    1
     7    68    31    1
     8    47    37   ar
     9    47    44   ar
    10    37    39   ar
    11    31    32    1
    12    31    12    1
    13    32     8    1
    14    81    44    1
    15    44    43   ar
    16    39    75    1
    17    39    41   ar
    18    62    28    1
    19     8     1    1
    20    43    41   ar
    21    43    79    1
    22    58    24    1
    23    41    77    1
    24    12    28    1
    25    12    67    1
    26    12     1    1
    27    63    28    1
    28    56     4    1
    29     4    24    1
    30    28    21    1
    31     7    33    2
    32     9    33    1
    33     9     1    1
    34    24    54    1
    35    24    25    1
    36    33    30    1
    37    69    30    1
    38     1     2    1
    39     1    13    1
    40     1     3    1
    41    21    25   ar
    42    21    19   ar
    43    30    13    1
    44    30    34    1
    45    64    29    1
    46    25    27   ar
    47     2    18    1
    48    70    34    1
    49    13    29    1
    50    13    66    1
    51    48    15    1
    52    34    73    1
    53    34    36    1
    54     3    19    1
    55    29    65    1
    56    29    20    1
    57    19    17   ar
    58    82    46    1
    59    18    20   ar
    60    18    14   ar
    61    27    60    1
    62    27    11   ar
    63    51    15    1
    64    15    14    1
    65    15    50    1
    66    20    22   ar
    67    14    10   ar
    68    46    36   ar
    69    46    45   ar
    70    36    38   ar
    71    17    11   ar
    72    17    16    1
    73    57    23    1
    74    22    23    1
    75    22    26   ar
    76    10    26   ar
    77    80    45    1
    78    45    42   ar
    79    38    74    1
    80    38    40   ar
    81    53    16    1
    82    49    16    1
    83    23    55    1
    84    23     5    1
    85    16    52    1
    86    26    61    1
    87    59     5    1
    88    42    40   ar
    89    42    78    1
    90    40    76    1
