@<TRIPOS>MOLECULE
CSD_code = NURRIC | q = 1 | S = 0 | Stoichiometry = C26H20CoN6O2(1+) | MND = 6
 55 62 0 0 0
SMALL
GASTEIGER

@<TRIPOS>ATOM
      1 CO          2.8327    2.9992   12.9651 Co.oh   1  UNL1        0.0000
      2 O           1.1293    2.5421   13.6191 O.2     1  UNL1        0.0000
      3 C           0.3938    3.5821   13.6770 C.2     1  UNL1        0.0000
      4 C          -0.9846    3.4886   14.1432 C.ar    1  UNL1        0.0000
      5 C          -1.7796    4.6345   14.2294 C.ar    1  UNL1        0.0000
      6 H          -1.3591    5.5850   13.9435 H       1  UNL1        0.0000
      7 C          -3.0826    4.5309   14.6737 C.ar    1  UNL1        0.0000
      8 H          -3.6998    5.4136   14.7410 H       1  UNL1        0.0000
      9 C          -3.6016    3.2944   15.0315 C.ar    1  UNL1        0.0000
     10 H          -4.6217    3.2191   15.3764 H       1  UNL1        0.0000
     11 C          -2.8159    2.1540   14.9457 C.ar    1  UNL1        0.0000
     12 H          -3.2248    1.1945   15.2230 H       1  UNL1        0.0000
     13 C          -1.5114    2.2459   14.5037 C.ar    1  UNL1        0.0000
     14 H          -0.8860    1.3694   14.4273 H       1  UNL1        0.0000
     15 N           0.8688    4.7771   13.3171 N.2     1  UNL1        0.0000
     16 N           2.1135    4.6579   12.9215 N.pl3   1  UNL1        0.0000
     17 C           2.8428    5.6046   12.4194 C.2     1  UNL1        0.0000
     18 H           2.4804    6.6131   12.2779 H       1  UNL1        0.0000
     19 C           4.1547    5.1711   12.0421 C.2     1  UNL1        0.0000
     20 N           4.3949    3.8542   12.2727 N.pl3   1  UNL1        0.0000
     21 C           5.5779    3.3475   11.9410 C.2     1  UNL1        0.0000
     22 H           5.7323    2.2943   12.1326 H       1  UNL1        0.0000
     23 C           6.5833    4.1081   11.3709 C.2     1  UNL1        0.0000
     24 H           7.5242    3.6486   11.1179 H       1  UNL1        0.0000
     25 C           6.3524    5.4577   11.1295 C.2     1  UNL1        0.0000
     26 H           7.1168    6.0730   10.6816 H       1  UNL1        0.0000
     27 C           5.1273    5.9947   11.4698 C.2     1  UNL1        0.0000
     28 H           4.9014    7.0345   11.2976 H       1  UNL1        0.0000
     29 O           2.3001    2.5849   11.2091 O.2     1  UNL1        0.0000
     30 C           2.5976    1.3746   10.9398 C.2     1  UNL1        0.0000
     31 C           2.2681    0.8028    9.6396 C.ar    1  UNL1        0.0000
     32 C           2.6164   -0.5170    9.3406 C.ar    1  UNL1        0.0000
     33 H           3.1294   -1.1038   10.0852 H       1  UNL1        0.0000
     34 C           2.2973   -1.0455    8.1057 C.ar    1  UNL1        0.0000
     35 H           2.5641   -2.0646    7.8715 H       1  UNL1        0.0000
     36 C           1.6322   -0.2705    7.1657 C.ar    1  UNL1        0.0000
     37 H           1.3836   -0.6895    6.2025 H       1  UNL1        0.0000
     38 C           1.2829    1.0398    7.4596 C.ar    1  UNL1        0.0000
     39 H           0.7634    1.6375    6.7264 H       1  UNL1        0.0000
     40 C           1.5976    1.5788    8.6908 C.ar    1  UNL1        0.0000
     41 H           1.3308    2.5950    8.9387 H       1  UNL1        0.0000
     42 N           3.2176    0.6061   11.8390 N.2     1  UNL1        0.0000
     43 N           3.4147    1.2869   12.9424 N.pl3   1  UNL1        0.0000
     44 C           3.9032    0.8150   14.0465 C.2     1  UNL1        0.0000
     45 H           4.2065   -0.2161   14.1611 H       1  UNL1        0.0000
     46 C           3.9618    1.7825   15.1008 C.2     1  UNL1        0.0000
     47 N           3.4956    3.0113   14.7572 N.pl3   1  UNL1        0.0000
     48 C           3.4866    3.9757   15.6715 C.2     1  UNL1        0.0000
     49 H           3.1027    4.9393   15.3652 H       1  UNL1        0.0000
     50 C           3.9369    3.7829   16.9655 C.2     1  UNL1        0.0000
     51 H           3.9049    4.5969   17.6702 H       1  UNL1        0.0000
     52 C           4.4180    2.5309   17.3317 C.2     1  UNL1        0.0000
     53 H           4.7707    2.3515   18.3351 H       1  UNL1        0.0000
     54 C           4.4327    1.5220   16.3901 C.2     1  UNL1        0.0000
     55 H           4.7925    0.5344   16.6292 H       1  UNL1        0.0000
@<TRIPOS>BOND
     1    37    36    1
     2    39    38    1
     3    36    38   ar
     4    36    34   ar
     5    38    40   ar
     6    35    34    1
     7    34    32   ar
     8    40    41    1
     9    40    31   ar
    10    32    31   ar
    11    32    33    1
    12    31    30    1
    13    26    25    1
    14    30    29    1
    15    30    42    2
    16    24    23    1
    17    25    23    1
    18    25    27    2
    19    29     1    1
    20    28    27    1
    21    23    21    2
    22    27    19    1
    23    42    43    1
    24    21    22    1
    25    21    20    1
    26    19    20    1
    27    19    17    2
    28    20     1    1
    29    18    17    1
    30    17    16    1
    31    16     1    1
    32    16    15    1
    33    43     1    1
    34    43    44    1
    35     1     2    1
    36     1    47    1
    37    15     3    2
    38     2     3    1
    39     3     4    1
    40     6     5    1
    41    44    45    1
    42    44    46    2
    43     4     5   ar
    44     4    13   ar
    45     5     7   ar
    46    14    13    1
    47    13    11   ar
    48     7     8    1
    49     7     9   ar
    50    47    46    1
    51    47    48    1
    52    11     9   ar
    53    11    12    1
    54     9    10    1
    55    46    54    1
    56    49    48    1
    57    48    50    2
    58    54    55    1
    59    54    52    2
    60    50    52    1
    61    50    51    1
    62    52    53    1
