@<TRIPOS>MOLECULE
CSD_code = NUTHOA | q = 0 | S = 0 | Stoichiometry = C15H17CoN4O5 | MND = 6
 42 46 0 0 0
SMALL
GASTEIGER

@<TRIPOS>ATOM
      1 CO          2.8832    2.8618    6.7033 Co.oh   1  UNL1        0.0000
      2 N           1.8005    3.6158    5.2068 N.pl3   1  UNL1        0.0000
      3 N           4.4493    3.2565    5.5212 N.4     1  UNL1        0.0000
      4 N           3.1887    0.9982    5.7145 N.pl3   1  UNL1        0.0000
      5 N           2.8806    4.4277    7.4606 N.pl3   1  UNL1        0.0000
      6 O           3.9698    4.9710    7.5101 O.2     1  UNL1        0.0000
      7 O           1.8398    4.9265    7.8071 O.2     1  UNL1        0.0000
      8 O           3.8188    2.1188    8.0722 O.3     1  UNL1        0.0000
      9 O           1.7164    2.1138    7.9031 O.3     1  UNL1        0.0000
     10 O           2.6518    0.7748    9.4524 O.2     1  UNL1        0.0000
     11 C          -0.3653    3.6473    6.3646 C.3     1  UNL1        0.0000
     12 C           0.4991    3.9427    5.1951 C.3     1  UNL1        0.0000
     13 C          -0.0709    4.5826    4.0921 C.2     1  UNL1        0.0000
     14 C           0.6980    4.9047    2.9949 C.2     1  UNL1        0.0000
     15 C           2.0407    4.5614    3.0184 C.2     1  UNL1        0.0000
     16 C           2.5482    3.9207    4.1349 C.2     1  UNL1        0.0000
     17 C           3.9913    3.4902    4.1543 C.3     1  UNL1        0.0000
     18 C           5.3306    2.0982    5.6451 C.3     1  UNL1        0.0000
     19 C           4.5075    0.8393    5.5811 C.3     1  UNL1        0.0000
     20 C           5.0983   -0.4033    5.4221 C.2     1  UNL1        0.0000
     21 C           4.2865   -1.5258    5.4238 C.2     1  UNL1        0.0000
     22 C           2.9205   -1.3558    5.5409 C.2     1  UNL1        0.0000
     23 C           2.3935   -0.0737    5.6766 C.2     1  UNL1        0.0000
     24 C           0.9246    0.1422    5.7813 C.3     1  UNL1        0.0000
     25 C           2.7237    1.5993    8.5788 C.2     1  UNL1        0.0000
     26 H           0.0540    2.8636    6.9841 H       1  UNL1        0.0000
     27 H          -1.3701    3.3879    6.0411 H       1  UNL1        0.0000
     28 H          -0.4207    4.5384    6.9893 H       1  UNL1        0.0000
     29 H           4.9320    4.0817    5.8812 H       1  UNL1        0.0000
     30 H          -1.1203    4.8290    4.1207 H       1  UNL1        0.0000
     31 H           0.2716    5.4094    2.1419 H       1  UNL1        0.0000
     32 H           2.6892    4.7861    2.1866 H       1  UNL1        0.0000
     33 H           4.0579    2.5503    3.5930 H       1  UNL1        0.0000
     34 H           4.6091    4.2333    3.6359 H       1  UNL1        0.0000
     35 H           5.8000    2.1350    6.6325 H       1  UNL1        0.0000
     36 H           6.1158    2.0921    4.8764 H       1  UNL1        0.0000
     37 H           6.1690   -0.4843    5.3219 H       1  UNL1        0.0000
     38 H           4.7139   -2.5126    5.3307 H       1  UNL1        0.0000
     39 H           2.2570   -2.2058    5.5382 H       1  UNL1        0.0000
     40 H           0.6916    0.4489    6.8015 H       1  UNL1        0.0000
     41 H           0.3784   -0.7666    5.5465 H       1  UNL1        0.0000
     42 H           0.6111    0.9463    5.1189 H       1  UNL1        0.0000
@<TRIPOS>BOND
     1    31    14    1
     2    32    15    1
     3    14    15    1
     4    14    13    2
     5    15    16    2
     6    33    17    1
     7    34    17    1
     8    13    30    1
     9    13    12    1
    10    16    17    1
    11    16     2    1
    12    17     3    1
    13    36    18    1
    14    42    24    1
    15    12     2    1
    16    12    11    1
    17     2     1    1
    18    37    20    1
    19    38    21    1
    20    20    21    2
    21    20    19    1
    22    21    22    1
    23     3    18    1
    24     3    29    1
    25     3     1    1
    26    39    22    1
    27    22    23    2
    28    41    24    1
    29    19    18    1
    30    19     4    1
    31    18    35    1
    32    23     4    1
    33    23    24    1
    34     4     1    1
    35    24    40    1
    36    27    11    1
    37    11    26    1
    38    11    28    1
    39     1     5    1
    40     1     9    1
    41     1     8    1
    42     5     6    2
    43     5     7    2
    44     9    25    1
    45     8    25    1
    46    25    10    2
