@<TRIPOS>MOLECULE
CSD_code = OBOCEQ | q = 1 | S = 0 | Stoichiometry = C28H24Cl2CoN8S2(1+) | MND = 6
 65 72 0 0 0
SMALL
GASTEIGER

@<TRIPOS>ATOM
      1 CO          3.7105   17.0665    6.5039 Co.oh   1  UNL1        0.0000
      2 CL          1.6104   26.3889    5.4975 Cl      1  UNL1        0.0000
      3 N           5.2861   16.6420    7.5142 N.pl3   1  UNL1        0.0000
      4 N           4.1437   18.8153    6.8901 N.pl3   1  UNL1        0.0000
      5 C           5.8536   17.7655    8.0106 C.2     1  UNL1        0.0000
      6 CL         -1.3543    9.3108    9.0537 Cl      1  UNL1        0.0000
      7 C           7.0042   17.7016    8.8034 C.2     1  UNL1        0.0000
      8 H           7.4398   18.6106    9.1831 H       1  UNL1        0.0000
      9 N           3.4371   19.8465    6.4657 N.2     1  UNL1        0.0000
     10 N           1.5421   20.5022    5.2822 N.pl3   1  UNL1        0.0000
     11 C           7.5619   16.4733    9.0893 C.2     1  UNL1        0.0000
     12 H           8.4460   16.4013    9.7029 H       1  UNL1        0.0000
     13 C           6.9626   15.3287    8.5759 C.2     1  UNL1        0.0000
     14 H           7.3617   14.3489    8.7787 H       1  UNL1        0.0000
     15 C           5.8306   15.4625    7.7940 C.2     1  UNL1        0.0000
     16 H           5.3447   14.5861    7.3874 H       1  UNL1        0.0000
     17 C           5.1815   18.9890    7.6618 C.2     1  UNL1        0.0000
     18 C           2.3648   19.5628    5.7658 C.2     1  UNL1        0.0000
     19 C           1.6055   21.8934    5.3603 C.ar    1  UNL1        0.0000
     20 C           1.6075   24.6679    5.4425 C.ar    1  UNL1        0.0000
     21 C           2.7139   23.9594    5.8903 C.ar    1  UNL1        0.0000
     22 H           3.5727   24.4905    6.2683 H       1  UNL1        0.0000
     23 C           2.7147   22.5790    5.8479 C.ar    1  UNL1        0.0000
     24 H           3.5719   22.0238    6.1866 H       1  UNL1        0.0000
     25 S           1.9126   17.9248    5.4096 S.3     1  UNL1        0.0000
     26 C           0.5014   22.6149    4.9044 C.ar    1  UNL1        0.0000
     27 H          -0.3609   22.0911    4.5187 H       1  UNL1        0.0000
     28 C           0.4992   23.9937    4.9458 C.ar    1  UNL1        0.0000
     29 H          -0.3568   24.5476    4.5957 H       1  UNL1        0.0000
     30 C           5.6232   20.3261    8.1525 C.3     1  UNL1        0.0000
     31 H           5.7519   20.3089    9.2328 H       1  UNL1        0.0000
     32 H           4.8712   21.0680    7.8995 H       1  UNL1        0.0000
     33 H           6.5716   20.6111    7.6980 H       1  UNL1        0.0000
     34 C           3.4076   13.4349    4.5752 C.3     1  UNL1        0.0000
     35 H           2.7047   13.4423    3.7425 H       1  UNL1        0.0000
     36 H           2.9691   12.8722    5.3947 H       1  UNL1        0.0000
     37 H           4.3211   12.9416    4.2493 H       1  UNL1        0.0000
     38 C           4.4877   15.7528    4.2656 C.2     1  UNL1        0.0000
     39 H           0.9936   15.1757    9.7138 H       1  UNL1        0.0000
     40 N           3.2256   15.3276    6.1390 N.pl3   1  UNL1        0.0000
     41 N           4.6459   16.9699    4.8352 N.pl3   1  UNL1        0.0000
     42 H           0.7186   20.1379    4.8166 H       1  UNL1        0.0000
     43 S           2.4774   16.8358    8.4025 S.3     1  UNL1        0.0000
     44 C           5.0485   15.4643    3.0169 C.2     1  UNL1        0.0000
     45 H           4.9003   14.4917    2.5785 H       1  UNL1        0.0000
     46 N           2.4478   14.6104    6.9272 N.2     1  UNL1        0.0000
     47 C          -0.0488   12.9368   10.0396 C.ar    1  UNL1        0.0000
     48 H          -0.0948   13.5924   10.8970 H       1  UNL1        0.0000
     49 C           5.7726   16.4360    2.3591 C.2     1  UNL1        0.0000
     50 H           6.2081   16.2360    1.3928 H       1  UNL1        0.0000
     51 N           1.2141   14.6103    8.9018 N.pl3   1  UNL1        0.0000
     52 C          -0.6565   11.6997   10.0939 C.ar    1  UNL1        0.0000
     53 H          -1.1742   11.3859   10.9859 H       1  UNL1        0.0000
     54 C           5.9268   17.6803    2.9600 C.2     1  UNL1        0.0000
     55 H           6.4809   18.4691    2.4794 H       1  UNL1        0.0000
     56 C          -0.6001   10.8576    8.9907 C.ar    1  UNL1        0.0000
     57 C           5.3465   17.9001    4.1950 C.2     1  UNL1        0.0000
     58 H           5.4444   18.8628    4.6778 H       1  UNL1        0.0000
     59 C           0.0568   11.2606    7.8361 C.ar    1  UNL1        0.0000
     60 H           0.0859   10.6058    6.9801 H       1  UNL1        0.0000
     61 C           3.6912   14.8277    5.0267 C.2     1  UNL1        0.0000
     62 C           0.6659   12.4990    7.7837 C.ar    1  UNL1        0.0000
     63 H           1.1643   12.8244    6.8873 H       1  UNL1        0.0000
     64 C           2.0181   15.2078    8.0135 C.2     1  UNL1        0.0000
     65 C           0.6244   13.3460    8.8877 C.ar    1  UNL1        0.0000
@<TRIPOS>BOND
     1    50    49    1
     2    49    54    1
     3    49    44    2
     4    55    54    1
     5    45    44    1
     6    54    57    2
     7    44    38    1
     8    35    34    1
     9    57    58    1
    10    57    41    1
    11    37    34    1
    12    38    41    1
    13    38    61    2
    14    27    26    1
    15    34    61    1
    16    34    36    1
    17    29    28    1
    18    42    10    1
    19    41     1    1
    20    26    28   ar
    21    26    19   ar
    22    28    20   ar
    23    61    40    1
    24    10    19    1
    25    10    18    1
    26    19    23   ar
    27    25    18    1
    28    25     1    1
    29    20     2    1
    30    20    21   ar
    31    18     9    2
    32    23    21   ar
    33    23    24    1
    34    21    22    1
    35    40     1    1
    36    40    46    1
    37     9     4    1
    38     1     4    1
    39     1     3    1
    40     1    43    1
    41    63    62    1
    42     4    17    1
    43    46    64    2
    44    60    59    1
    45    16    15    1
    46     3    15    1
    47     3     5    1
    48    17     5    2
    49    17    30    1
    50    33    30    1
    51    62    59   ar
    52    62    65   ar
    53    15    13    2
    54    59    56   ar
    55    32    30    1
    56     5     7    1
    57    64    43    1
    58    64    51    1
    59    30    31    1
    60    13    14    1
    61    13    11    1
    62     7    11    2
    63     7     8    1
    64    65    51    1
    65    65    47   ar
    66    51    39    1
    67    56     6    1
    68    56    52   ar
    69    11    12    1
    70    47    52   ar
    71    47    48    1
    72    52    53    1
