@<TRIPOS>MOLECULE
CSD_code = OMUJUC | q = -1 | S = 0 | Stoichiometry = C30H42CoN6O8(1-) | MND = 6
 87 92 0 0 0
SMALL
GASTEIGER

@<TRIPOS>ATOM
      1 CO          1.5422   19.2244    4.6028 Co.oh   1  UNL1        0.0000
      2 N           2.2465   17.8531    5.7494 N.am    1  UNL1        0.0000
      3 C           4.5072   15.2062    3.5674 C.3     1  UNL1        0.0000
      4 H           5.3763   14.6897    3.1598 H       1  UNL1        0.0000
      5 H           4.4681   16.2214    3.1557 H       1  UNL1        0.0000
      6 H           3.5910   14.6840    3.2687 H       1  UNL1        0.0000
      7 O           4.6570   15.1997    4.9647 O.3     1  UNL1        0.0000
      8 O           1.5995   16.5870    7.5707 O.2     1  UNL1        0.0000
      9 N           0.0871   19.0160    5.5595 N.pl3   1  UNL1        0.0000
     10 C           3.5429   15.7372    5.6544 C.3     1  UNL1        0.0000
     11 H           3.5743   15.3166    6.6608 H       1  UNL1        0.0000
     12 H           2.6155   15.4247    5.1643 H       1  UNL1        0.0000
     13 O          -1.4992   21.7086    3.9943 O.2     1  UNL1        0.0000
     14 N           0.4778   20.5507    3.6568 N.am    1  UNL1        0.0000
     15 C           3.5816   17.2790    5.7266 C.3     1  UNL1        0.0000
     16 H           4.0707   17.6235    4.8100 H       1  UNL1        0.0000
     17 C           4.4212   17.7512    6.9159 C.3     1  UNL1        0.0000
     18 H           4.5361   18.8327    6.8891 H       1  UNL1        0.0000
     19 H           5.4024   17.2838    6.8714 H       1  UNL1        0.0000
     20 H           3.9298   17.4635    7.8418 H       1  UNL1        0.0000
     21 O           2.0332   23.4149    1.9777 O.3     1  UNL1        0.0000
     22 C           1.4033   17.4229    6.6867 C.2     1  UNL1        0.0000
     23 C           0.0911   18.1374    6.5574 C.3     1  UNL1        0.0000
     24 C          -1.0215   17.9886    7.3744 C.2     1  UNL1        0.0000
     25 H          -0.9896   17.2656    8.1746 H       1  UNL1        0.0000
     26 C          -2.1324   18.7868    7.1365 C.2     1  UNL1        0.0000
     27 H          -3.0146   18.6897    7.7534 H       1  UNL1        0.0000
     28 C          -2.0943   19.7280    6.1159 C.2     1  UNL1        0.0000
     29 H          -2.9194   20.3932    5.9145 H       1  UNL1        0.0000
     30 C          -0.9477   19.8203    5.3397 C.2     1  UNL1        0.0000
     31 C          -0.6914   20.8091    4.2421 C.2     1  UNL1        0.0000
     32 C           0.8883   21.3728    2.5273 C.3     1  UNL1        0.0000
     33 H           1.7880   20.9227    2.0945 H       1  UNL1        0.0000
     34 C          -0.1567   21.4514    1.4120 C.3     1  UNL1        0.0000
     35 H          -0.3111   20.4681    0.9750 H       1  UNL1        0.0000
     36 H           0.2127   22.1281    0.6456 H       1  UNL1        0.0000
     37 H          -1.0969   21.8263    1.8053 H       1  UNL1        0.0000
     38 C           1.2857   22.7792    2.9958 C.3     1  UNL1        0.0000
     39 H           0.3870   23.3643    3.2360 H       1  UNL1        0.0000
     40 H           1.9030   22.6930    3.9007 H       1  UNL1        0.0000
     41 C           2.6353   24.5984    2.4253 C.3     1  UNL1        0.0000
     42 H           3.2036   24.9997    1.5871 H       1  UNL1        0.0000
     43 H           3.3098   24.4044    3.2692 H       1  UNL1        0.0000
     44 H           1.8840   25.3342    2.7428 H       1  UNL1        0.0000
     45 N           2.2884   20.5987    5.7573 N.am    1  UNL1        0.0000
     46 N           3.0026   19.4910    3.6643 N.pl3   1  UNL1        0.0000
     47 O           0.5216   23.1108    7.8584 O.3     1  UNL1        0.0000
     48 O           4.0842   22.0534    5.7831 O.2     1  UNL1        0.0000
     49 N           1.1506   17.9158    3.2385 N.am    1  UNL1        0.0000
     50 O           2.0392   17.1651    1.2391 O.2     1  UNL1        0.0000
     51 O           0.7486   14.9765    4.0832 O.3     1  UNL1        0.0000
     52 C          -0.8139   22.6805    7.7820 C.3     1  UNL1        0.0000
     53 H          -1.3831   23.3211    8.4559 H       1  UNL1        0.0000
     54 H          -0.9329   21.6373    8.1002 H       1  UNL1        0.0000
     55 H          -1.2056   22.7789    6.7628 H       1  UNL1        0.0000
     56 C           1.3509   22.6196    6.8266 C.3     1  UNL1        0.0000
     57 H           2.2526   23.2342    6.8482 H       1  UNL1        0.0000
     58 H           0.8467   22.7439    5.8584 H       1  UNL1        0.0000
     59 C           1.7408   21.1364    6.9940 C.3     1  UNL1        0.0000
     60 H           0.8233   20.5833    7.2157 H       1  UNL1        0.0000
     61 C           2.6852   20.9571    8.1845 C.3     1  UNL1        0.0000
     62 H           2.8337   19.8988    8.3853 H       1  UNL1        0.0000
     63 H           2.2453   21.4327    9.0585 H       1  UNL1        0.0000
     64 H           3.6418   21.4240    7.9689 H       1  UNL1        0.0000
     65 C           3.4283   21.1237    5.3059 C.2     1  UNL1        0.0000
     66 C           3.8603   20.4262    4.0532 C.3     1  UNL1        0.0000
     67 C           5.0044   20.6918    3.3148 C.2     1  UNL1        0.0000
     68 H           5.6809   21.4600    3.6553 H       1  UNL1        0.0000
     69 C           5.2332   19.9593    2.1583 C.2     1  UNL1        0.0000
     70 H           6.1176   20.1419    1.5649 H       1  UNL1        0.0000
     71 C           4.3126   18.9990    1.7618 C.2     1  UNL1        0.0000
     72 H           4.4362   18.4156    0.8626 H       1  UNL1        0.0000
     73 C           3.1890   18.7923    2.5499 C.2     1  UNL1        0.0000
     74 C           2.0587   17.8517    2.2650 C.2     1  UNL1        0.0000
     75 C          -0.0584   17.1174    3.1000 C.3     1  UNL1        0.0000
     76 H          -0.6414   17.2442    4.0185 H       1  UNL1        0.0000
     77 C          -0.9095   17.6139    1.9267 C.3     1  UNL1        0.0000
     78 H          -1.1538   18.6620    2.0795 H       1  UNL1        0.0000
     79 H          -1.8333   17.0427    1.8557 H       1  UNL1        0.0000
     80 H          -0.3484   17.5056    1.0026 H       1  UNL1        0.0000
     81 C           0.2376   15.6125    2.9341 C.3     1  UNL1        0.0000
     82 H          -0.6882   15.1069    2.6152 H       1  UNL1        0.0000
     83 H           0.9981   15.4875    2.1620 H       1  UNL1        0.0000
     84 C          -0.1909   14.7417    5.0984 C.3     1  UNL1        0.0000
     85 H           0.3468   14.2506    5.9075 H       1  UNL1        0.0000
     86 H          -1.0006   14.0904    4.7377 H       1  UNL1        0.0000
     87 H          -0.6291   15.6665    5.4872 H       1  UNL1        0.0000
@<TRIPOS>BOND
     1    36    34    1
     2    72    71    1
     3    35    34    1
     4    80    77    1
     5    50    74    2
     6    34    37    1
     7    34    32    1
     8    70    69    1
     9    42    41    1
    10    71    69    1
    11    71    73    2
    12    79    77    1
    13    77    78    1
    14    77    75    1
    15    21    41    1
    16    21    38    1
    17    33    32    1
    18    69    67    2
    19    83    81    1
    20    74    73    1
    21    74    49   am
    22    41    44    1
    23    41    43    1
    24    32    38    1
    25    32    14    1
    26    73    46    1
    27    82    81    1
    28    81    75    1
    29    81    51    1
    30    38    39    1
    31    38    40    1
    32    75    49    1
    33    75    76    1
    34     5     3    1
    35     4     3    1
    36    49     1    1
    37     6     3    1
    38    67    68    1
    39    67    66    1
    40     3     7    1
    41    14    31   am
    42    14     1    1
    43    46    66    1
    44    46     1    1
    45    13    31    2
    46    66    65    1
    47    51    84    1
    48    31    30    1
    49     1     9    1
    50     1     2    1
    51     1    45    1
    52    86    84    1
    53    16    15    1
    54     7    10    1
    55    84    87    1
    56    84    85    1
    57    12    10    1
    58    65    45   am
    59    65    48    2
    60    30     9    1
    61    30    28    2
    62     9    23    1
    63    10    15    1
    64    10    11    1
    65    15     2    1
    66    15    17    1
    67     2    22   am
    68    45    59    1
    69    58    56    1
    70    29    28    1
    71    28    26    1
    72    23    22    1
    73    23    24    1
    74    22     8    2
    75    55    52    1
    76    56    57    1
    77    56    59    1
    78    56    47    1
    79    19    17    1
    80    18    17    1
    81    17    20    1
    82    59    60    1
    83    59    61    1
    84    26    24    2
    85    26    27    1
    86    24    25    1
    87    52    47    1
    88    52    54    1
    89    52    53    1
    90    64    61    1
    91    61    62    1
    92    61    63    1
