@<TRIPOS>MOLECULE
CSD_code = OMUJOW | q = -1 | S = 0 | Stoichiometry = C46H42CoN6O4(1-) | MND = 6
 99 108 0 0 0
SMALL
GASTEIGER

@<TRIPOS>ATOM
      1 CO         -2.5731    8.7013    7.3799 Co.oh   1  UNL1        0.0000
      2 C          -3.5214    7.7141    3.4056 C.ar    1  UNL1        0.0000
      3 H          -2.4489    7.6221    3.3369 H       1  UNL1        0.0000
      4 C          -4.2289    8.3728    2.4175 C.ar    1  UNL1        0.0000
      5 H          -3.7022    8.7991    1.5767 H       1  UNL1        0.0000
      6 C          -5.6043    8.4953    2.5103 C.ar    1  UNL1        0.0000
      7 H          -6.1555    9.0222    1.7440 H       1  UNL1        0.0000
      8 C          -6.2715    7.9421    3.5889 C.ar    1  UNL1        0.0000
      9 H          -7.3469    8.0303    3.6664 H       1  UNL1        0.0000
     10 C          -5.5625    7.2819    4.5762 C.ar    1  UNL1        0.0000
     11 H          -6.0868    6.8518    5.4201 H       1  UNL1        0.0000
     12 C          -4.1808    7.1724    4.4997 C.ar    1  UNL1        0.0000
     13 C          -3.4036    6.4649    5.5866 C.3     1  UNL1        0.0000
     14 H          -4.0807    6.3080    6.4395 H       1  UNL1        0.0000
     15 C          -2.9864    5.0682    5.1079 C.3     1  UNL1        0.0000
     16 H          -2.4227    4.5622    5.8886 H       1  UNL1        0.0000
     17 H          -2.3668    5.1301    4.2198 H       1  UNL1        0.0000
     18 H          -3.8850    4.4935    4.8864 H       1  UNL1        0.0000
     19 N          -2.3169    7.2974    6.0842 N.am    1  UNL1        0.0000
     20 C          -1.0538    7.1227    5.7003 C.2     1  UNL1        0.0000
     21 O          -0.5853    6.3900    4.8270 O.2     1  UNL1        0.0000
     22 N          -0.8223    8.7396    7.4037 N.pl3   1  UNL1        0.0000
     23 C          -0.1540    7.9921    6.5328 C.3     1  UNL1        0.0000
     24 C           1.2292    8.0627    6.4495 C.2     1  UNL1        0.0000
     25 H           1.7441    7.4402    5.7336 H       1  UNL1        0.0000
     26 C           1.9007    8.9430    7.2879 C.2     1  UNL1        0.0000
     27 H           2.9782    9.0182    7.2458 H       1  UNL1        0.0000
     28 C           1.1769    9.7360    8.1667 C.2     1  UNL1        0.0000
     29 H           1.6464   10.4502    8.8243 H       1  UNL1        0.0000
     30 C          -0.2044    9.6057    8.1953 C.2     1  UNL1        0.0000
     31 C          -1.1498   10.4314    9.0100 C.2     1  UNL1        0.0000
     32 O          -0.7283   11.3217    9.7509 O.2     1  UNL1        0.0000
     33 N          -2.4108   10.0801    8.7564 N.am    1  UNL1        0.0000
     34 C          -3.4809   10.8379    9.4098 C.3     1  UNL1        0.0000
     35 H          -4.4273   10.4333    9.0344 H       1  UNL1        0.0000
     36 C          -3.4515   12.3221    9.0212 C.3     1  UNL1        0.0000
     37 H          -3.6572   12.4198    7.9580 H       1  UNL1        0.0000
     38 H          -2.4781   12.7515    9.2355 H       1  UNL1        0.0000
     39 H          -4.2137   12.8617    9.5810 H       1  UNL1        0.0000
     40 C          -3.5154   10.6440   10.9146 C.ar    1  UNL1        0.0000
     41 C          -2.7681   11.4211   11.7910 C.ar    1  UNL1        0.0000
     42 H          -2.0812   12.1534   11.4023 H       1  UNL1        0.0000
     43 C          -2.8763   11.2417   13.1589 C.ar    1  UNL1        0.0000
     44 H          -2.2852   11.8547   13.8262 H       1  UNL1        0.0000
     45 C          -3.7327   10.2857   13.6776 C.ar    1  UNL1        0.0000
     46 H          -3.8171   10.1492   14.7479 H       1  UNL1        0.0000
     47 C          -4.4784    9.5030   12.8136 C.ar    1  UNL1        0.0000
     48 H          -5.1466    8.7471   13.2023 H       1  UNL1        0.0000
     49 C          -4.3713    9.6856   11.4463 C.ar    1  UNL1        0.0000
     50 H          -4.9625    9.0702   10.7831 H       1  UNL1        0.0000
     51 C          -1.6248    7.7141   11.3541 C.ar    1  UNL1        0.0000
     52 H          -2.6973    7.6221   11.4229 H       1  UNL1        0.0000
     53 C          -0.9174    8.3728   12.3423 C.ar    1  UNL1        0.0000
     54 H          -1.4440    8.7991   13.1831 H       1  UNL1        0.0000
     55 C           0.4581    8.4953   12.2495 C.ar    1  UNL1        0.0000
     56 H           1.0093    9.0222   13.0157 H       1  UNL1        0.0000
     57 C           1.1253    7.9421   11.1708 C.ar    1  UNL1        0.0000
     58 H           2.2007    8.0304   11.0933 H       1  UNL1        0.0000
     59 C           0.4163    7.2819   10.1836 C.ar    1  UNL1        0.0000
     60 H           0.9406    6.8518    9.3396 H       1  UNL1        0.0000
     61 C          -0.9655    7.1724   10.2601 C.ar    1  UNL1        0.0000
     62 C          -1.7426    6.4649    9.1731 C.3     1  UNL1        0.0000
     63 H          -1.0655    6.3080    8.3202 H       1  UNL1        0.0000
     64 C          -2.1599    5.0682    9.6519 C.3     1  UNL1        0.0000
     65 H          -2.7236    4.5622    8.8712 H       1  UNL1        0.0000
     66 H          -2.7794    5.1300   10.5400 H       1  UNL1        0.0000
     67 H          -1.2612    4.4935    9.8733 H       1  UNL1        0.0000
     68 N          -2.8293    7.2974    8.6756 N.am    1  UNL1        0.0000
     69 C          -4.0924    7.1227    9.0595 C.2     1  UNL1        0.0000
     70 O          -4.5610    6.3899    9.9328 O.2     1  UNL1        0.0000
     71 N          -4.3240    8.7396    7.3560 N.pl3   1  UNL1        0.0000
     72 C          -4.9922    7.9921    8.2270 C.3     1  UNL1        0.0000
     73 C          -6.3755    8.0626    8.3102 C.2     1  UNL1        0.0000
     74 H          -6.8904    7.4402    9.0262 H       1  UNL1        0.0000
     75 C          -7.0470    8.9430    7.4718 C.2     1  UNL1        0.0000
     76 H          -8.1244    9.0182    7.5140 H       1  UNL1        0.0000
     77 C          -6.3232    9.7360    6.5931 C.2     1  UNL1        0.0000
     78 H          -6.7926   10.4502    5.9354 H       1  UNL1        0.0000
     79 C          -4.9418    9.6057    6.5644 C.2     1  UNL1        0.0000
     80 C          -3.9965   10.4313    5.7498 C.2     1  UNL1        0.0000
     81 O          -4.4179   11.3217    5.0089 O.2     1  UNL1        0.0000
     82 N          -2.7355   10.0801    6.0034 N.am    1  UNL1        0.0000
     83 C          -1.6653   10.8379    5.3499 C.3     1  UNL1        0.0000
     84 H          -0.7189   10.4333    5.7254 H       1  UNL1        0.0000
     85 C          -1.6947   12.3221    5.7385 C.3     1  UNL1        0.0000
     86 H          -1.4891   12.4198    6.8018 H       1  UNL1        0.0000
     87 H          -2.6681   12.7515    5.5243 H       1  UNL1        0.0000
     88 H          -0.9325   12.8617    5.1788 H       1  UNL1        0.0000
     89 C          -1.6308   10.6440    3.8451 C.ar    1  UNL1        0.0000
     90 C          -2.3782   11.4211    2.9688 C.ar    1  UNL1        0.0000
     91 H          -3.0651   12.1533    3.3574 H       1  UNL1        0.0000
     92 C          -2.2700   11.2417    1.6008 C.ar    1  UNL1        0.0000
     93 H          -2.8611   11.8547    0.9336 H       1  UNL1        0.0000
     94 C          -1.4135   10.2857    1.0822 C.ar    1  UNL1        0.0000
     95 H          -1.3292   10.1492    0.0119 H       1  UNL1        0.0000
     96 C          -0.6679    9.5030    1.9462 C.ar    1  UNL1        0.0000
     97 H           0.0003    8.7471    1.5575 H       1  UNL1        0.0000
     98 C          -0.7749    9.6856    3.3135 C.ar    1  UNL1        0.0000
     99 H          -0.1837    9.0702    3.9766 H       1  UNL1        0.0000
@<TRIPOS>BOND
     1    95    94    1
     2    93    92    1
     3    94    92   ar
     4    94    96   ar
     5    97    96    1
     6     5     4    1
     7    92    90   ar
     8     7     6    1
     9    96    98   ar
    10     4     6   ar
    11     4     2   ar
    12     6     8   ar
    13    90    91    1
    14    90    89   ar
    15    98    89   ar
    16    98    99    1
    17     3     2    1
    18     2    12   ar
    19     8     9    1
    20     8    10   ar
    21    89    83    1
    22    17    15    1
    23    12    10   ar
    24    12    13    1
    25    10    11    1
    26    21    20    2
    27    18    15    1
    28    81    80    2
    29    15    13    1
    30    15    16    1
    31    88    85    1
    32    83    84    1
    33    83    85    1
    34    83    82    1
    35    87    85    1
    36    13    19    1
    37    13    14    1
    38    20    19   am
    39    20    23    1
    40    25    24    1
    41    85    86    1
    42    80    82   am
    43    80    79    1
    44    78    77    1
    45    82     1    1
    46    19     1    1
    47    24    23    1
    48    24    26    2
    49    23    22    1
    50    79    77    2
    51    79    71    1
    52    77    75    1
    53    27    26    1
    54    26    28    1
    55    71     1    1
    56    71    72    1
    57     1    22    1
    58     1    68    1
    59     1    33    1
    60    22    30    1
    61    75    76    1
    62    75    73    2
    63    37    36    1
    64    28    30    2
    65    28    29    1
    66    30    31    1
    67    72    73    1
    68    72    69    1
    69    73    74    1
    70    63    62    1
    71    68    69   am
    72    68    62    1
    73    33    31   am
    74    33    34    1
    75    65    64    1
    76    31    32    2
    77    36    38    1
    78    36    34    1
    79    36    39    1
    80    35    34    1
    81    69    70    2
    82    62    64    1
    83    62    61    1
    84    60    59    1
    85    34    40    1
    86    64    67    1
    87    64    66    1
    88    59    61   ar
    89    59    57   ar
    90    61    51   ar
    91    50    49    1
    92    40    49   ar
    93    40    41   ar
    94    58    57    1
    95    57    55   ar
    96    51    52    1
    97    51    53   ar
    98    42    41    1
    99    49    47   ar
   100    41    43   ar
   101    55    53   ar
   102    55    56    1
   103    53    54    1
   104    47    48    1
   105    47    45   ar
   106    43    45   ar
   107    43    44    1
   108    45    46    1
