@<TRIPOS>MOLECULE
CSD_code = PIGLEZ | q = 0 | S = 0 | Stoichiometry = C22H40CoN3P2 | MND = 4
 68 70 0 0 0
SMALL
GASTEIGER

@<TRIPOS>ATOM
      1 CO          1.6899   10.8578    9.4148 Co.oh   1  UNL1        0.0000
      2 P           3.8960   10.7244    9.8283 P.3     1  UNL1        0.0000
      3 P          -0.3612   10.7860    8.4963 P.3     1  UNL1        0.0000
      4 N           2.2125   10.3593    7.7214 N.ar    1  UNL1        0.0000
      5 N           1.2362   11.3488   10.8893 N.3     1  UNL1        0.0000
      6 N           0.9263   11.7462   11.8985 N.3     1  UNL1        0.0000
      7 C           1.3772   10.1522    6.6617 C.ar    1  UNL1        0.0000
      8 C           3.4967   10.1192    7.3255 C.ar    1  UNL1        0.0000
      9 C           4.4760    9.3301   10.9656 C.3     1  UNL1        0.0000
     10 C           0.0331   10.3151    6.8151 C.3     1  UNL1        0.0000
     11 H          -0.6837   10.1490    6.0276 H       1  UNL1        0.0000
     12 C           3.4730    9.7455    5.9192 C.ar    1  UNL1        0.0000
     13 H           4.3452    9.5019    5.3402 H       1  UNL1        0.0000
     14 C           2.1881    9.7657    5.5167 C.ar    1  UNL1        0.0000
     15 H           1.7953    9.5423    4.5414 H       1  UNL1        0.0000
     16 C           4.7738   12.3622   10.1746 C.3     1  UNL1        0.0000
     17 C          -1.2531   12.4405    8.2976 C.3     1  UNL1        0.0000
     18 C           3.8644    8.0857   10.3141 C.3     1  UNL1        0.0000
     19 H           2.7971    8.2471   10.1385 H       1  UNL1        0.0000
     20 H           3.9793    7.2165   10.9600 H       1  UNL1        0.0000
     21 H           4.3377    7.8731    9.3571 H       1  UNL1        0.0000
     22 C          -1.5068    9.4046    9.0915 C.3     1  UNL1        0.0000
     23 C          -0.0931   13.4126    8.0574 C.3     1  UNL1        0.0000
     24 H           0.5670   13.4334    8.9261 H       1  UNL1        0.0000
     25 H          -0.4636   14.4216    7.8814 H       1  UNL1        0.0000
     26 H           0.4901   13.1025    7.1899 H       1  UNL1        0.0000
     27 C           4.6529   12.7562   11.6437 C.3     1  UNL1        0.0000
     28 H           3.6337   12.6111   11.9982 H       1  UNL1        0.0000
     29 H           4.9091   13.8085   11.7667 H       1  UNL1        0.0000
     30 H           5.3302   12.1739   12.2643 H       1  UNL1        0.0000
     31 C           4.5172   10.2459    8.2194 C.3     1  UNL1        0.0000
     32 H           5.5500   10.0518    7.9799 H       1  UNL1        0.0000
     33 C           6.2336   12.3878    9.7293 C.3     1  UNL1        0.0000
     34 H           6.8378   11.6686   10.2740 H       1  UNL1        0.0000
     35 H           6.6471   13.3801    9.9100 H       1  UNL1        0.0000
     36 H           6.3154   12.1796    8.6650 H       1  UNL1        0.0000
     37 C           5.9910    9.1828   11.0523 C.3     1  UNL1        0.0000
     38 H           6.4420    9.1759   10.0623 H       1  UNL1        0.0000
     39 H           6.2384    8.2406   11.5416 H       1  UNL1        0.0000
     40 H           6.4317    9.9864   11.6378 H       1  UNL1        0.0000
     41 C           3.8729    9.4909   12.3596 C.3     1  UNL1        0.0000
     42 H           4.3030   10.3333   12.8924 H       1  UNL1        0.0000
     43 H           4.0569    8.5912   12.9466 H       1  UNL1        0.0000
     44 H           2.7967    9.6395   12.2932 H       1  UNL1        0.0000
     45 C          -1.9843   12.8341    9.5777 C.3     1  UNL1        0.0000
     46 H          -2.9020   12.2629    9.6984 H       1  UNL1        0.0000
     47 H          -2.2510   13.8902    9.5413 H       1  UNL1        0.0000
     48 H          -1.3495   12.6738   10.4477 H       1  UNL1        0.0000
     49 C          -2.8086    9.2896    8.3065 C.3     1  UNL1        0.0000
     50 H          -3.4867   10.1051    8.5473 H       1  UNL1        0.0000
     51 H          -3.3077    8.3550    8.5634 H       1  UNL1        0.0000
     52 H          -2.6216    9.2872    7.2348 H       1  UNL1        0.0000
     53 C          -0.6563    8.1471    8.8851 C.3     1  UNL1        0.0000
     54 H          -0.5157    7.9398    7.8258 H       1  UNL1        0.0000
     55 H          -1.1278    7.2824    9.3496 H       1  UNL1        0.0000
     56 H           0.3288    8.2888    9.3387 H       1  UNL1        0.0000
     57 C           3.9753   13.3500    9.3175 C.3     1  UNL1        0.0000
     58 H           3.9897   13.0442    8.2710 H       1  UNL1        0.0000
     59 H           4.3946   14.3527    9.3898 H       1  UNL1        0.0000
     60 H           2.9368   13.3847    9.6515 H       1  UNL1        0.0000
     61 C          -1.7929    9.5540   10.5843 C.3     1  UNL1        0.0000
     62 H          -0.8638    9.6699   11.1394 H       1  UNL1        0.0000
     63 H          -2.3008    8.6629   10.9530 H       1  UNL1        0.0000
     64 H          -2.4254   10.4116   10.7921 H       1  UNL1        0.0000
     65 C          -2.1989   12.4926    7.1005 C.3     1  UNL1        0.0000
     66 H          -1.6623   12.2905    6.1764 H       1  UNL1        0.0000
     67 H          -2.6302   13.4910    7.0267 H       1  UNL1        0.0000
     68 H          -3.0140   11.7815    7.1946 H       1  UNL1        0.0000
@<TRIPOS>BOND
     1    15    14    1
     2    13    12    1
     3    14    12   ar
     4    14     7   ar
     5    12     8   ar
     6    11    10    1
     7    66    65    1
     8     7    10    1
     9     7     4   ar
    10    10     3    1
    11    67    65    1
    12    65    68    1
    13    65    17    1
    14    26    23    1
    15    52    49    1
    16     8     4   ar
    17     8    31    1
    18     4     1    1
    19    54    53    1
    20    25    23    1
    21    32    31    1
    22    23    17    1
    23    23    24    1
    24    31     2    1
    25    58    57    1
    26    17     3    1
    27    17    45    1
    28    49    50    1
    29    49    51    1
    30    49    22    1
    31     3    22    1
    32     3     1    1
    33    36    33    1
    34    53    22    1
    35    53    56    1
    36    53    55    1
    37    22    61    1
    38    57    59    1
    39    57    60    1
    40    57    16    1
    41    21    18    1
    42     1     2    1
    43     1     5    1
    44    47    45    1
    45    45    46    1
    46    45    48    1
    47    33    35    1
    48    33    16    1
    49    33    34    1
    50     2    16    1
    51     2     9    1
    52    38    37    1
    53    19    18    1
    54    16    27    1
    55    18    20    1
    56    18     9    1
    57    61    64    1
    58    61    63    1
    59    61    62    1
    60     5     6    1
    61     9    37    1
    62     9    41    1
    63    37    39    1
    64    37    40    1
    65    27    29    1
    66    27    28    1
    67    27    30    1
    68    44    41    1
    69    41    42    1
    70    41    43    1
