@<TRIPOS>MOLECULE
CSD_code = PIHJAT | q = 1 | S = 0 | Stoichiometry = C24H16CoN10S2(1+) | MND = 6
 53 62 0 0 0
SMALL
GASTEIGER

@<TRIPOS>ATOM
      1 CO          4.3531    9.2396    3.6943 Co.oh   1  UNL1        0.0000
      2 S           6.7950   10.6375    6.9739 S.3     1  UNL1        0.0000
      3 S           6.9732    9.7137    0.2907 S.3     1  UNL1        0.0000
      4 N           7.2082   13.1927    6.1653 N.ar    1  UNL1        0.0000
      5 N           5.3990   10.4446    4.7805 N.pl3   1  UNL1        0.0000
      6 N           5.5179    8.4748    6.0143 N.2     1  UNL1        0.0000
      7 N           4.8085    8.0476    5.0035 N.pl3   1  UNL1        0.0000
      8 N           3.4685    7.7225    2.9075 N.pl3   1  UNL1        0.0000
      9 N           8.9796    8.0490    1.0370 N.ar    1  UNL1        0.0000
     10 N           5.8808    8.9839    2.5427 N.pl3   1  UNL1        0.0000
     11 N           4.6403   10.5426    1.3397 N.2     1  UNL1        0.0000
     12 N           3.8679   10.4217    2.3867 N.pl3   1  UNL1        0.0000
     13 N           2.7308    9.8316    4.5440 N.pl3   1  UNL1        0.0000
     14 C           6.6509   12.0323    5.9254 C.ar    1  UNL1        0.0000
     15 C           5.8655   11.7282    4.7899 C.ar    1  UNL1        0.0000
     16 C           5.6934   12.7459    3.8526 C.ar    1  UNL1        0.0000
     17 H           5.1252   12.5831    2.9509 H       1  UNL1        0.0000
     18 C           6.2885   13.9677    4.1068 C.ar    1  UNL1        0.0000
     19 H           6.1839   14.7783    3.4045 H       1  UNL1        0.0000
     20 C           7.0299   14.1486    5.2735 C.ar    1  UNL1        0.0000
     21 H           7.5044   15.0911    5.5021 H       1  UNL1        0.0000
     22 C           5.8226    9.7584    5.8492 C.2     1  UNL1        0.0000
     23 C           4.3687    6.8296    4.8733 C.2     1  UNL1        0.0000
     24 H           4.5695    6.0583    5.6032 H       1  UNL1        0.0000
     25 C           3.6175    6.6155    3.6799 C.2     1  UNL1        0.0000
     26 C           3.0722    5.3848    3.2991 C.2     1  UNL1        0.0000
     27 H           3.2099    4.5294    3.9402 H       1  UNL1        0.0000
     28 C           2.3778    5.2930    2.1118 C.2     1  UNL1        0.0000
     29 H           1.9503    4.3548    1.7953 H       1  UNL1        0.0000
     30 C           2.2405    6.4331    1.3264 C.2     1  UNL1        0.0000
     31 H           1.7105    6.4050    0.3891 H       1  UNL1        0.0000
     32 C           2.7995    7.6202    1.7627 C.2     1  UNL1        0.0000
     33 H           2.7037    8.5147    1.1628 H       1  UNL1        0.0000
     34 C           7.8134    8.5732    1.3196 C.ar    1  UNL1        0.0000
     35 C           7.0675    8.3098    2.4915 C.ar    1  UNL1        0.0000
     36 C           7.6361    7.4351    3.4163 C.ar    1  UNL1        0.0000
     37 H           7.1363    7.2012    4.3427 H       1  UNL1        0.0000
     38 C           8.8701    6.8882    3.1166 C.ar    1  UNL1        0.0000
     39 H           9.3458    6.2119    3.8077 H       1  UNL1        0.0000
     40 C           9.5019    7.2175    1.9183 C.ar    1  UNL1        0.0000
     41 H          10.4643    6.8056    1.6541 H       1  UNL1        0.0000
     42 C           5.7116    9.7662    1.4695 C.2     1  UNL1        0.0000
     43 C           2.7498   11.0658    2.5569 C.2     1  UNL1        0.0000
     44 H           2.3707   11.7730    1.8329 H       1  UNL1        0.0000
     45 C           2.0918   10.7584    3.7845 C.2     1  UNL1        0.0000
     46 C           0.8944   11.3448    4.2080 C.2     1  UNL1        0.0000
     47 H           0.4159   12.0750    3.5758 H       1  UNL1        0.0000
     48 C           0.3579   10.9803    5.4243 C.2     1  UNL1        0.0000
     49 H          -0.5627   11.4200    5.7741 H       1  UNL1        0.0000
     50 C           1.0280   10.0363    6.1960 C.2     1  UNL1        0.0000
     51 H           0.6473    9.7268    7.1549 H       1  UNL1        0.0000
     52 C           2.2051    9.4911    5.7172 C.2     1  UNL1        0.0000
     53 H           2.7393    8.7585    6.3061 H       1  UNL1        0.0000
@<TRIPOS>BOND
     1     3    34    1
     2     3    42    1
     3    31    30    1
     4     9    34   ar
     5     9    40   ar
     6    33    32    1
     7    34    35   ar
     8    30    32    2
     9    30    28    1
    10    11    42    2
    11    11    12    1
    12    42    10    1
    13    41    40    1
    14    32     8    1
    15    29    28    1
    16    44    43    1
    17    40    38   ar
    18    28    26    2
    19    12    43    1
    20    12     1    1
    21    35    10    1
    22    35    36   ar
    23    10     1    1
    24    43    45    2
    25     8    25    1
    26     8     1    1
    27    17    16    1
    28    38    36   ar
    29    38    39    1
    30    26    25    1
    31    26    27    1
    32    19    18    1
    33    36    37    1
    34    47    46    1
    35    25    23    2
    36     1    13    1
    37     1     5    1
    38     1     7    1
    39    45    46    1
    40    45    13    1
    41    16    18   ar
    42    16    15   ar
    43    18    20   ar
    44    46    48    2
    45    13    52    1
    46     5    15    1
    47     5    22    1
    48    15    14   ar
    49    23     7    1
    50    23    24    1
    51     7     6    1
    52    20    21    1
    53    20     4   ar
    54    48    49    1
    55    48    50    1
    56    52    50    2
    57    52    53    1
    58    22     6    2
    59    22     2    1
    60    14     4   ar
    61    14     2    1
    62    50    51    1
