@<TRIPOS>MOLECULE
CSD_code = PIKKEC | q = 1 | S = 0 | Stoichiometry = C26H24CoN10O2(1+) | MND = 6
 63 70 0 0 0
SMALL
GASTEIGER

@<TRIPOS>ATOM
      1 CO          6.2359    3.2155    0.4099 Co.oh   1  UNL1        0.0000
      2 O           5.2929    3.1264   -1.1962 O.2     1  UNL1        0.0000
      3 O           4.7919    2.5092    1.3545 O.2     1  UNL1        0.0000
      4 N           7.3204    2.9206    1.9456 N.pl3   1  UNL1        0.0000
      5 N           6.8277    1.5904   -0.0979 N.pl3   1  UNL1        0.0000
      6 N           6.3701    1.1262   -1.2672 N.2     1  UNL1        0.0000
      7 N           7.9917   -0.3640    0.5104 N.3     1  UNL1        0.0000
      8 N           6.1122   -0.2749   -3.5347 N.pl3   1  UNL1        0.0000
      9 N           7.5278    4.3024   -0.4682 N.pl3   1  UNL1        0.0000
     10 N           5.4917    4.7899    0.8754 N.pl3   1  UNL1        0.0000
     11 N           4.3728    4.7288    1.6079 N.2     1  UNL1        0.0000
     12 N           5.4757    7.1269    0.5852 N.3     1  UNL1        0.0000
     13 N           2.3485    5.3704    3.2394 N.pl3   1  UNL1        0.0000
     14 C           7.5281    3.7026    2.9981 C.3     1  UNL1        0.0000
     15 C           8.2714    3.3040    4.0952 C.2     1  UNL1        0.0000
     16 C           8.8303    2.0319    4.0982 C.2     1  UNL1        0.0000
     17 C           8.6216    1.2098    3.0087 C.2     1  UNL1        0.0000
     18 C           7.8533    1.6724    1.9387 C.2     1  UNL1        0.0000
     19 C           7.5354    0.9035    0.7526 C.3     1  UNL1        0.0000
     20 C           5.5427    2.0188   -1.8058 C.2     1  UNL1        0.0000
     21 C           4.9052    1.7715   -3.0859 C.ar    1  UNL1        0.0000
     22 C           3.9657    2.7128   -3.5352 C.ar    1  UNL1        0.0000
     23 C           3.3080    2.5571   -4.7293 C.ar    1  UNL1        0.0000
     24 C           3.5775    1.4383   -5.5174 C.ar    1  UNL1        0.0000
     25 C           4.4939    0.5027   -5.1052 C.ar    1  UNL1        0.0000
     26 C           5.1824    0.6392   -3.8890 C.ar    1  UNL1        0.0000
     27 C           8.5995    3.9469   -1.1666 C.3     1  UNL1        0.0000
     28 C           9.3966    4.8588   -1.8360 C.2     1  UNL1        0.0000
     29 C           9.0673    6.2074   -1.7742 C.2     1  UNL1        0.0000
     30 C           7.9548    6.5890   -1.0510 C.2     1  UNL1        0.0000
     31 C           7.1893    5.6153   -0.4067 C.2     1  UNL1        0.0000
     32 C           5.9872    5.8777    0.3584 C.3     1  UNL1        0.0000
     33 C           4.0566    3.4551    1.8294 C.2     1  UNL1        0.0000
     34 C           2.8850    3.0990    2.6082 C.ar    1  UNL1        0.0000
     35 C           2.5629    1.7364    2.7091 C.ar    1  UNL1        0.0000
     36 C           1.4690    1.3078    3.4179 C.ar    1  UNL1        0.0000
     37 C           0.6566    2.2457    4.0547 C.ar    1  UNL1        0.0000
     38 C           0.9483    3.5850    3.9756 C.ar    1  UNL1        0.0000
     39 C           2.0627    4.0501    3.2588 C.ar    1  UNL1        0.0000
     40 H           7.0787    4.6858    2.9689 H       1  UNL1        0.0000
     41 H           8.4054    3.9753    4.9267 H       1  UNL1        0.0000
     42 H           9.0489    0.2207    2.9768 H       1  UNL1        0.0000
     43 H           8.2015   -0.9481    1.3028 H       1  UNL1        0.0000
     44 H           7.5148   -0.8314   -0.2470 H       1  UNL1        0.0000
     45 H           9.4178    1.6919    4.9365 H       1  UNL1        0.0000
     46 H           6.1939   -1.1253   -4.0626 H       1  UNL1        0.0000
     47 H           6.5084   -0.1936   -2.6101 H       1  UNL1        0.0000
     48 H           3.7677    3.5634   -2.9012 H       1  UNL1        0.0000
     49 H           5.6586    7.8418   -0.0994 H       1  UNL1        0.0000
     50 H           4.5352    7.1218    0.9525 H       1  UNL1        0.0000
     51 H           2.5858    3.2883   -5.0557 H       1  UNL1        0.0000
     52 H           1.6800    6.0253    3.6037 H       1  UNL1        0.0000
     53 H           3.0967    5.6703    2.6321 H       1  UNL1        0.0000
     54 H           3.0631    1.3065   -6.4571 H       1  UNL1        0.0000
     55 H           4.7022   -0.3624   -5.7177 H       1  UNL1        0.0000
     56 H           8.8308    2.8910   -1.1975 H       1  UNL1        0.0000
     57 H          10.2528    4.5176   -2.3933 H       1  UNL1        0.0000
     58 H           9.6688    6.9437   -2.2835 H       1  UNL1        0.0000
     59 H           7.6770    7.6280   -0.9774 H       1  UNL1        0.0000
     60 H           3.2026    1.0324    2.1993 H       1  UNL1        0.0000
     61 H           1.2351    0.2571    3.4808 H       1  UNL1        0.0000
     62 H          -0.2078    1.9178    4.6118 H       1  UNL1        0.0000
     63 H           0.3177    4.3099    4.4693 H       1  UNL1        0.0000
@<TRIPOS>BOND
     1    54    24    1
     2    55    25    1
     3    24    25   ar
     4    24    23   ar
     5    25    26   ar
     6    51    23    1
     7    23    22   ar
     8    46     8    1
     9    26     8    1
    10    26    21   ar
    11    22    21   ar
    12    22    48    1
    13     8    47    1
    14    21    20    1
    15    57    28    1
    16    58    29    1
    17    28    29    2
    18    28    27    1
    19    20     6    2
    20    20     2    1
    21    29    30    1
    22     6     5    1
    23    56    27    1
    24     2     1    1
    25    27     9    1
    26    30    59    1
    27    30    31    2
    28     9    31    1
    29     9     1    1
    30    31    32    1
    31    44     7    1
    32    49    12    1
    33     5     1    1
    34     5    19    1
    35    32    12    1
    36    32    10    1
    37     1    10    1
    38     1     3    1
    39     1     4    1
    40     7    19    1
    41     7    43    1
    42    12    50    1
    43    19    18    1
    44    10    11    1
    45     3    33    1
    46    11    33    2
    47    33    34    1
    48    18     4    1
    49    18    17    2
    50     4    14    1
    51    60    35    1
    52    34    35   ar
    53    34    39   ar
    54    53    13    1
    55    35    36   ar
    56    40    14    1
    57    42    17    1
    58    14    15    1
    59    17    16    1
    60    13    39    1
    61    13    52    1
    62    39    38   ar
    63    36    61    1
    64    36    37   ar
    65    38    37   ar
    66    38    63    1
    67    37    62    1
    68    15    16    2
    69    15    41    1
    70    16    45    1
