@<TRIPOS>MOLECULE
CSD_code = PIMYOZ | q = 0 | S = 0 | Stoichiometry = C16H17CoN6O2S2 | MND = 6
 44 49 0 0 0
SMALL
GASTEIGER

@<TRIPOS>ATOM
      1 CO          5.3643    2.8924    9.8382 Co.oh   1  UNL1        0.0000
      2 S           6.7469    1.4608   11.2587 S.3     1  UNL1        0.0000
      3 S           5.2875    1.2475    8.2896 S.3     1  UNL1        0.0000
      4 O           4.0108    3.8431    8.9723 O.3     1  UNL1        0.0000
      5 O           5.7302    4.4423   11.0219 O.3     1  UNL1        0.0000
      6 N           2.8555    3.4991    9.5338 N.3     1  UNL1        0.0000
      7 N           2.7959    2.6930   10.5019 N.3     1  UNL1        0.0000
      8 N           3.9642    2.2370   10.8609 N.pl3   1  UNL1        0.0000
      9 N           6.7206    3.6372    8.8589 N.pl3   1  UNL1        0.0000
     10 N           7.1776    4.7686    9.2941 N.3     1  UNL1        0.0000
     11 N           6.6503    5.1641   10.3796 N.3     1  UNL1        0.0000
     12 C           1.6659    4.0700    8.9729 C.3     1  UNL1        0.0000
     13 C           4.0714    1.3685   11.9109 C.ar    1  UNL1        0.0000
     14 C           2.9875    0.9254   12.6782 C.ar    1  UNL1        0.0000
     15 C           3.1952    0.0596   13.7305 C.ar    1  UNL1        0.0000
     16 C           4.4725   -0.3856   14.0460 C.ar    1  UNL1        0.0000
     17 C           5.5541    0.0369   13.2922 C.ar    1  UNL1        0.0000
     18 C           5.3542    0.9113   12.2410 C.ar    1  UNL1        0.0000
     19 C           7.5100    2.5518   12.4292 C.2     1  UNL1        0.0000
     20 C           8.6491    3.1745   12.1842 C.2     1  UNL1        0.0000
     21 C           6.5088    1.9302    7.2531 C.ar    1  UNL1        0.0000
     22 C           6.8625    1.3382    6.0475 C.ar    1  UNL1        0.0000
     23 C           7.8436    1.9112    5.2612 C.ar    1  UNL1        0.0000
     24 C           8.4761    3.0812    5.6628 C.ar    1  UNL1        0.0000
     25 C           8.1310    3.6870    6.8545 C.ar    1  UNL1        0.0000
     26 C           7.1465    3.1153    7.6571 C.ar    1  UNL1        0.0000
     27 C           7.0512    6.4059   10.9728 C.3     1  UNL1        0.0000
     28 H           0.8113    3.7122    9.5409 H       1  UNL1        0.0000
     29 H           1.7273    5.1585    9.0193 H       1  UNL1        0.0000
     30 H           1.5795    3.7701    7.9269 H       1  UNL1        0.0000
     31 H           2.0001    1.2777   12.4253 H       1  UNL1        0.0000
     32 H           2.3522   -0.2762   14.3158 H       1  UNL1        0.0000
     33 H           4.6246   -1.0633   14.8715 H       1  UNL1        0.0000
     34 H           6.5537   -0.3041   13.5167 H       1  UNL1        0.0000
     35 H           6.9628    2.6484   13.3538 H       1  UNL1        0.0000
     36 H           9.0954    3.8282   12.9138 H       1  UNL1        0.0000
     37 H           9.1654    3.0640   11.2455 H       1  UNL1        0.0000
     38 H           6.3648    0.4299    5.7442 H       1  UNL1        0.0000
     39 H           8.1186    1.4442    4.3271 H       1  UNL1        0.0000
     40 H           9.2407    3.5223    5.0406 H       1  UNL1        0.0000
     41 H           8.6083    4.5975    7.1833 H       1  UNL1        0.0000
     42 H           7.7961    6.8667   10.3295 H       1  UNL1        0.0000
     43 H           6.1833    7.0599   11.0755 H       1  UNL1        0.0000
     44 H           7.4680    6.2211   11.9653 H       1  UNL1        0.0000
@<TRIPOS>BOND
     1    39    23    1
     2    40    24    1
     3    23    24   ar
     4    23    22   ar
     5    24    25   ar
     6    38    22    1
     7    22    21   ar
     8    25    41    1
     9    25    26   ar
    10    21    26   ar
    11    21     3    1
    12    26     9    1
    13    30    12    1
    14     3     1    1
    15     9    10    1
    16     9     1    1
    17     4     6    1
    18     4     1    1
    19    12    29    1
    20    12     6    1
    21    12    28    1
    22    10    11    1
    23     6     7    1
    24     1     8    1
    25     1     5    1
    26     1     2    1
    27    42    27    1
    28    11    27    1
    29    11     5    1
    30     7     8    1
    31     8    13    1
    32    27    43    1
    33    27    44    1
    34    37    20    1
    35     2    18    1
    36     2    19    1
    37    13    18   ar
    38    13    14   ar
    39    20    19    2
    40    20    36    1
    41    18    17   ar
    42    31    14    1
    43    19    35    1
    44    14    15   ar
    45    17    34    1
    46    17    16   ar
    47    15    16   ar
    48    15    32    1
    49    16    33    1
