@<TRIPOS>MOLECULE
CSD_code = PULXAW | q = 1 | S = 0 | Stoichiometry = C32H20Br2CoN4O2(1+) | MND = 6
 61 70 0 0 0
SMALL
GASTEIGER

@<TRIPOS>ATOM
      1 CO          5.2832    8.4334    3.3795 Co.oh   1  UNL1        0.0000
      2 BR          7.6264   14.3855   -0.2506 Br      1  UNL1        0.0000
      3 BR         11.6205    4.7916    4.1988 Br      1  UNL1        0.0000
      4 N           4.1872    6.8765    3.1801 N.pl3   1  UNL1        0.0000
      5 N           4.6115    8.9573    1.6856 N.pl3   1  UNL1        0.0000
      6 N           3.9205    9.3370    4.3753 N.pl3   1  UNL1        0.0000
      7 N           5.9822    7.9165    5.0646 N.pl3   1  UNL1        0.0000
      8 O           6.3670    9.9414    3.5739 O.3     1  UNL1        0.0000
      9 O           6.6192    7.5700    2.4019 O.3     1  UNL1        0.0000
     10 C           5.0661    9.9534    0.9754 C.3     1  UNL1        0.0000
     11 H           4.7230   10.0667   -0.0505 H       1  UNL1        0.0000
     12 C           5.9807   10.9273    1.4188 C.ar    1  UNL1        0.0000
     13 C           6.5841   10.8670    2.7166 C.ar    1  UNL1        0.0000
     14 C           7.4872   11.9078    3.0678 C.ar    1  UNL1        0.0000
     15 H           7.9375   11.8618    4.0468 H       1  UNL1        0.0000
     16 C           7.7848   12.9226    2.2059 C.ar    1  UNL1        0.0000
     17 H           8.4754   13.7005    2.4936 H       1  UNL1        0.0000
     18 C           7.1943   12.9593    0.9314 C.ar    1  UNL1        0.0000
     19 C           6.3184   11.9860    0.5436 C.ar    1  UNL1        0.0000
     20 H           5.8684   12.0203   -0.4372 H       1  UNL1        0.0000
     21 C           4.0419    5.8321    3.9689 C.2     1  UNL1        0.0000
     22 H           4.5779    5.8381    4.9075 H       1  UNL1        0.0000
     23 C           3.2347    4.7362    3.6424 C.2     1  UNL1        0.0000
     24 H           3.1662    3.9112    4.3328 H       1  UNL1        0.0000
     25 C           2.5498    4.7310    2.4554 C.2     1  UNL1        0.0000
     26 H           1.9186    3.9017    2.1748 H       1  UNL1        0.0000
     27 C           2.6790    5.8328    1.5867 C.2     1  UNL1        0.0000
     28 C           2.0166    5.9378    0.3467 C.3     1  UNL1        0.0000
     29 H           1.3693    5.1355    0.0299 H       1  UNL1        0.0000
     30 C           2.1974    7.0484   -0.4343 C.2     1  UNL1        0.0000
     31 H           1.6842    7.1312   -1.3797 H       1  UNL1        0.0000
     32 C           3.0446    8.0904   -0.0393 C.2     1  UNL1        0.0000
     33 H           3.1444    8.9411   -0.6944 H       1  UNL1        0.0000
     34 C           3.7281    8.0232    1.1612 C.2     1  UNL1        0.0000
     35 C           3.5280    6.8910    1.9954 C.2     1  UNL1        0.0000
     36 C           7.1418    7.3475    5.2518 C.3     1  UNL1        0.0000
     37 H           7.5168    7.2410    6.2672 H       1  UNL1        0.0000
     38 C           7.9802    6.8409    4.2409 C.ar    1  UNL1        0.0000
     39 C           7.6629    6.9801    2.8508 C.ar    1  UNL1        0.0000
     40 C           8.5743    6.4232    1.9122 C.ar    1  UNL1        0.0000
     41 H           8.3314    6.5264    0.8663 H       1  UNL1        0.0000
     42 C           9.7170    5.7915    2.3076 C.ar    1  UNL1        0.0000
     43 H          10.3972    5.3820    1.5764 H       1  UNL1        0.0000
     44 C          10.0206    5.6767    3.6747 C.ar    1  UNL1        0.0000
     45 C           9.1779    6.1901    4.6187 C.ar    1  UNL1        0.0000
     46 H           9.4168    6.0976    5.6675 H       1  UNL1        0.0000
     47 C           2.9125   10.0758    3.9603 C.2     1  UNL1        0.0000
     48 H           2.7742   10.1758    2.8929 H       1  UNL1        0.0000
     49 C           2.0310   10.7234    4.8337 C.2     1  UNL1        0.0000
     50 H           1.2301   11.3179    4.4250 H       1  UNL1        0.0000
     51 C           2.2021   10.5917    6.1870 C.2     1  UNL1        0.0000
     52 H           1.5392   11.0771    6.8869 H       1  UNL1        0.0000
     53 C           3.2692    9.8074    6.6681 C.2     1  UNL1        0.0000
     54 C           3.5358    9.5980    8.0366 C.2     1  UNL1        0.0000
     55 H           2.8940   10.0581    8.7709 H       1  UNL1        0.0000
     56 C           4.5955    8.8173    8.4160 C.2     1  UNL1        0.0000
     57 H           4.7946    8.6520    9.4634 H       1  UNL1        0.0000
     58 C           5.4426    8.2250    7.4722 C.2     1  UNL1        0.0000
     59 H           6.2587    7.6183    7.8310 H       1  UNL1        0.0000
     60 C           5.2295    8.4161    6.1190 C.2     1  UNL1        0.0000
     61 C           4.1175    9.1997    5.7097 C.3     1  UNL1        0.0000
@<TRIPOS>BOND
     1    31    30    1
     2    33    32    1
     3    20    19    1
     4    30    32    2
     5    30    28    1
     6     2    18    1
     7    11    10    1
     8    32    34    1
     9    29    28    1
    10    28    27    1
    11    19    18   ar
    12    19    12   ar
    13    41    40    1
    14    18    16   ar
    15    10    12    1
    16    10     5    1
    17    34     5    1
    18    34    35    2
    19    12    13   ar
    20    43    42    1
    21    27    35    1
    22    27    25    2
    23     5     1    1
    24    40    42   ar
    25    40    39   ar
    26    35     4    1
    27    26    25    1
    28    16    17    1
    29    16    14   ar
    30    42    44   ar
    31     9    39    1
    32     9     1    1
    33    25    23    1
    34    13    14   ar
    35    13     8    1
    36    39    38   ar
    37    48    47    1
    38    14    15    1
    39     4     1    1
    40     4    21    1
    41     1     8    1
    42     1     6    1
    43     1     7    1
    44    23    21    2
    45    23    24    1
    46    44     3    1
    47    44    45   ar
    48    47     6    1
    49    47    49    2
    50    21    22    1
    51    38    45   ar
    52    38    36    1
    53     6    61    1
    54    50    49    1
    55    45    46    1
    56    49    51    1
    57     7    36    1
    58     7    60    1
    59    36    37    1
    60    61    60    1
    61    61    53    1
    62    60    58    2
    63    51    53    2
    64    51    52    1
    65    53    54    1
    66    58    59    1
    67    58    56    1
    68    54    56    2
    69    54    55    1
    70    56    57    1
