@<TRIPOS>MOLECULE
CSD_code = PUVZAJ | q = 1 | S = 0 | Stoichiometry = C44H40CoN6O2(1+) | MND = 6
 93 106 0 0 0
SMALL
GASTEIGER

@<TRIPOS>ATOM
      1 CO          6.0794   10.2105    6.0119 Co.oh   1  UNL1        0.0000
      2 O           6.4541   12.0321    5.8740 O.3     1  UNL1        0.0000
      3 O           4.2501   10.5617    5.9109 O.3     1  UNL1        0.0000
      4 N           5.6928    8.3454    6.1532 N.pl3   1  UNL1        0.0000
      5 N           5.9840    9.9438    4.1378 N.pl3   1  UNL1        0.0000
      6 N           6.8720   16.3522    4.0642 N.pl3   1  UNL1        0.0000
      7 N           7.9531    9.8512    6.1165 N.pl3   1  UNL1        0.0000
      8 N           6.1711   10.4832    7.8845 N.pl3   1  UNL1        0.0000
      9 N          -0.0380   12.0984    7.0794 N.pl3   1  UNL1        0.0000
     10 C           5.5231    7.5926    7.2207 C.2     1  UNL1        0.0000
     11 H           5.6165    8.0698    8.1856 H       1  UNL1        0.0000
     12 C           5.2340    6.2252    7.1493 C.2     1  UNL1        0.0000
     13 H           5.1067    5.6676    8.0632 H       1  UNL1        0.0000
     14 C           5.1197    5.6209    5.9250 C.2     1  UNL1        0.0000
     15 H           4.9023    4.5673    5.8363 H       1  UNL1        0.0000
     16 C           5.2873    6.3969    4.7605 C.2     1  UNL1        0.0000
     17 C           5.1933    5.8828    3.4527 C.3     1  UNL1        0.0000
     18 H           4.9822    4.8343    3.3152 H       1  UNL1        0.0000
     19 C           5.3734    6.7144    2.3774 C.2     1  UNL1        0.0000
     20 H           5.3079    6.3167    1.3760 H       1  UNL1        0.0000
     21 C           5.6401    8.0759    2.5393 C.2     1  UNL1        0.0000
     22 H           5.7779    8.6790    1.6561 H       1  UNL1        0.0000
     23 C           5.7314    8.6315    3.8069 C.2     1  UNL1        0.0000
     24 C           5.5693    7.7749    4.9313 C.2     1  UNL1        0.0000
     25 C           5.9677   10.9086    3.2411 C.3     1  UNL1        0.0000
     26 H           5.7596   10.6482    2.2054 H       1  UNL1        0.0000
     27 C           6.1898   12.2583    3.4952 C.ar    1  UNL1        0.0000
     28 C           6.1728   13.1796    2.4165 C.ar    1  UNL1        0.0000
     29 H           5.9865   12.7935    1.4239 H       1  UNL1        0.0000
     30 C           6.3985   14.5091    2.5753 C.ar    1  UNL1        0.0000
     31 C           6.4044   15.4330    1.3898 C.3     1  UNL1        0.0000
     32 H           5.7157   15.0638    0.6288 H       1  UNL1        0.0000
     33 H           7.4055   15.4498    0.9468 H       1  UNL1        0.0000
     34 C           6.0239   16.8389    1.8279 C.3     1  UNL1        0.0000
     35 H           6.0984   17.5402    0.9972 H       1  UNL1        0.0000
     36 H           4.9963   16.8459    2.1959 H       1  UNL1        0.0000
     37 C           6.9648   17.2623    2.9456 C.3     1  UNL1        0.0000
     38 H           7.9971   17.2970    2.5683 H       1  UNL1        0.0000
     39 H           6.7045   18.2641    3.2985 H       1  UNL1        0.0000
     40 C           7.2642   16.8617    5.3584 C.3     1  UNL1        0.0000
     41 H           7.0487   17.9328    5.3859 H       1  UNL1        0.0000
     42 H           8.3452   16.7302    5.5055 H       1  UNL1        0.0000
     43 C           6.5036   16.1392    6.4616 C.3     1  UNL1        0.0000
     44 H           5.4327   16.2901    6.3151 H       1  UNL1        0.0000
     45 H           6.7806   16.5494    7.4325 H       1  UNL1        0.0000
     46 C           6.8297   14.6566    6.3835 C.3     1  UNL1        0.0000
     47 H           7.8634   14.4798    6.6971 H       1  UNL1        0.0000
     48 H           6.1898   14.0771    7.0522 H       1  UNL1        0.0000
     49 C           6.6456   15.0282    3.8888 C.ar    1  UNL1        0.0000
     50 C           6.6307   14.1532    4.9780 C.ar    1  UNL1        0.0000
     51 C           6.4209   12.7709    4.8185 C.ar    1  UNL1        0.0000
     52 C           8.8178    9.5677    5.1641 C.2     1  UNL1        0.0000
     53 H           8.4434    9.5161    4.1518 H       1  UNL1        0.0000
     54 C          10.1749    9.3342    5.4134 C.2     1  UNL1        0.0000
     55 H          10.8288    9.1078    4.5866 H       1  UNL1        0.0000
     56 C          10.6471    9.3953    6.6982 C.2     1  UNL1        0.0000
     57 H          11.6873    9.2155    6.9239 H       1  UNL1        0.0000
     58 C           9.7521    9.7031    7.7424 C.2     1  UNL1        0.0000
     59 C          10.1247    9.7904    9.0977 C.2     1  UNL1        0.0000
     60 H          11.1525    9.6129    9.3716 H       1  UNL1        0.0000
     61 C           9.1826   10.0935   10.0470 C.2     1  UNL1        0.0000
     62 H           9.4690   10.1518   11.0860 H       1  UNL1        0.0000
     63 C           7.8494   10.3339    9.7070 C.2     1  UNL1        0.0000
     64 H           7.1523   10.5621   10.4976 H       1  UNL1        0.0000
     65 C           7.4360   10.2717    8.3844 C.2     1  UNL1        0.0000
     66 C           8.3983    9.9332    7.3927 C.3     1  UNL1        0.0000
     67 C           5.2067   11.0037    8.6157 C.3     1  UNL1        0.0000
     68 H           5.4244   11.2595    9.6505 H       1  UNL1        0.0000
     69 C           3.9121   11.2709    8.1834 C.ar    1  UNL1        0.0000
     70 C           2.9711   11.8036    9.1025 C.ar    1  UNL1        0.0000
     71 H           3.3004   11.9854   10.1161 H       1  UNL1        0.0000
     72 C           1.6871   12.0849    8.7648 C.ar    1  UNL1        0.0000
     73 C           0.7175   12.6372    9.7692 C.3     1  UNL1        0.0000
     74 H           0.7154   13.7306    9.7196 H       1  UNL1        0.0000
     75 H           1.0208   12.3524   10.7772 H       1  UNL1        0.0000
     76 C          -0.6758   12.1140    9.4508 C.3     1  UNL1        0.0000
     77 H          -0.6829   11.0247    9.5232 H       1  UNL1        0.0000
     78 H          -1.4137   12.5107   10.1477 H       1  UNL1        0.0000
     79 C          -1.0336   12.5355    8.0343 C.3     1  UNL1        0.0000
     80 H          -1.9943   12.0984    7.7450 H       1  UNL1        0.0000
     81 H          -1.1333   13.6294    7.9877 H       1  UNL1        0.0000
     82 C          -0.5122   11.9321    5.7224 C.3     1  UNL1        0.0000
     83 H          -1.2958   12.6746    5.5440 H       1  UNL1        0.0000
     84 H          -0.9587   10.9347    5.6081 H       1  UNL1        0.0000
     85 C           0.6156   12.1099    4.7173 C.3     1  UNL1        0.0000
     86 H           0.9958   13.1314    4.7754 H       1  UNL1        0.0000
     87 H           0.2373   11.9391    3.7096 H       1  UNL1        0.0000
     88 C           1.7306   11.1329    5.0577 C.3     1  UNL1        0.0000
     89 H           1.3881   10.1044    4.9081 H       1  UNL1        0.0000
     90 H           2.5989   11.2838    4.4139 H       1  UNL1        0.0000
     91 C           1.2431   11.8411    7.4235 C.ar    1  UNL1        0.0000
     92 C           2.1521   11.3394    6.4876 C.ar    1  UNL1        0.0000
     93 C           3.4826   11.0401    6.8296 C.ar    1  UNL1        0.0000
@<TRIPOS>BOND
     1    32    31    1
     2    33    31    1
     3    35    34    1
     4    20    19    1
     5    31    34    1
     6    31    30    1
     7    29    28    1
     8    22    21    1
     9    34    36    1
    10    34    37    1
    11    26    25    1
    12    19    21    2
    13    19    17    1
    14    28    30   ar
    15    28    27   ar
    16    21    23    1
    17    38    37    1
    18    30    49   ar
    19    37    39    1
    20    37     6    1
    21    25    27    1
    22    25     5    1
    23    18    17    1
    24    17    16    1
    25    27    51   ar
    26    87    85    1
    27    23     5    1
    28    23    24    2
    29    49     6    1
    30    49    50   ar
    31     6    40    1
    32     5     1    1
    33    53    52    1
    34    90    88    1
    35    55    54    1
    36    85    86    1
    37    85    88    1
    38    85    82    1
    39    16    24    1
    40    16    14    2
    41    51    50   ar
    42    51     2    1
    43    89    88    1
    44    24     4    1
    45    50    46    1
    46    88    92    1
    47    52    54    2
    48    52     7    1
    49    40    41    1
    50    40    42    1
    51    40    43    1
    52    54    56    1
    53    83    82    1
    54    84    82    1
    55    82     9    1
    56    15    14    1
    57     2     1    1
    58     3     1    1
    59     3    93    1
    60    14    12    1
    61     1     7    1
    62     1     4    1
    63     1     8    1
    64     7    66    1
    65     4    10    1
    66    44    43    1
    67    46    43    1
    68    46    47    1
    69    46    48    1
    70    43    45    1
    71    92    93   ar
    72    92    91   ar
    73    56    57    1
    74    56    58    2
    75    93    69   ar
    76     9    91    1
    77     9    79    1
    78    12    10    2
    79    12    13    1
    80    10    11    1
    81    66    58    1
    82    66    65    1
    83    91    72   ar
    84    58    59    1
    85    80    79    1
    86     8    65    1
    87     8    67    1
    88    81    79    1
    89    79    76    1
    90    69    67    1
    91    69    70   ar
    92    65    63    2
    93    67    68    1
    94    72    70   ar
    95    72    73    1
    96    59    60    1
    97    59    61    2
    98    70    71    1
    99    76    77    1
   100    76    73    1
   101    76    78    1
   102    63    61    1
   103    63    64    1
   104    74    73    1
   105    73    75    1
   106    61    62    1
