@<TRIPOS>MOLECULE
CSD_code = QAFKOA | q = 0 | S = 0 | Stoichiometry = C25H30CoN3O4S | MND = 6
 64 68 0 0 0
SMALL
GASTEIGER

@<TRIPOS>ATOM
      1 CO          5.5685   17.0220    7.4799 Co.oh   1  UNL1        0.0000
      2 N           3.7262   16.9791    7.9161 N.3     1  UNL1        0.0000
      3 O           6.0402   16.6043    9.2566 O.3     1  UNL1        0.0000
      4 C           5.4351   17.1026   10.2696 C.ar    1  UNL1        0.0000
      5 C           6.5983   19.5408    8.1662 C.3     1  UNL1        0.0000
      6 O           5.5788   18.8015    8.0158 O.3     1  UNL1        0.0000
      7 O           7.4177   17.0050    7.1194 O.2     1  UNL1        0.0000
      8 O           7.4904   16.9954   11.3929 O.3     1  UNL1        0.0000
      9 N           5.2990   17.5272    5.7167 N.2     1  UNL1        0.0000
     10 N           5.3667   14.9745    6.9058 N.4     1  UNL1        0.0000
     11 C           2.7735   16.6613    6.8804 C.3     1  UNL1        0.0000
     12 H           3.0196   17.2441    5.9903 H       1  UNL1        0.0000
     13 H           1.7536   16.9082    7.2030 H       1  UNL1        0.0000
     14 C           6.3364   20.8706    8.7772 C.ar    1  UNL1        0.0000
     15 C           7.9092   19.1971    7.8481 C.2     1  UNL1        0.0000
     16 H           8.6998   19.9056    8.0297 H       1  UNL1        0.0000
     17 C           8.2330   17.9382    7.3358 C.2     1  UNL1        0.0000
     18 C           4.0541   17.4371   10.2697 C.ar    1  UNL1        0.0000
     19 C           6.1692   17.3169   11.4858 C.ar    1  UNL1        0.0000
     20 C           3.2787   17.2447    9.0945 C.3     1  UNL1        0.0000
     21 H           2.1958   17.3169    9.2303 H       1  UNL1        0.0000
     22 C           5.3927   20.9653    9.7966 C.ar    1  UNL1        0.0000
     23 H           4.8733   20.0738   10.1147 H       1  UNL1        0.0000
     24 C           5.6266   18.2852    4.8726 C.1     1  UNL1        0.0000
     25 C           5.2442   14.1084    8.0810 C.3     1  UNL1        0.0000
     26 H           4.3768   14.3817    8.6763 H       1  UNL1        0.0000
     27 H           6.1257   14.2289    8.7062 H       1  UNL1        0.0000
     28 H           5.1552   13.0575    7.7770 H       1  UNL1        0.0000
     29 C           5.1414   22.1827   10.4013 C.ar    1  UNL1        0.0000
     30 H           4.4161   22.2452   11.1994 H       1  UNL1        0.0000
     31 C           6.5647   14.5517    6.1733 C.3     1  UNL1        0.0000
     32 H           6.7086   15.1895    5.3045 H       1  UNL1        0.0000
     33 H           6.4679   13.5089    5.8460 H       1  UNL1        0.0000
     34 H           7.4344   14.6461    6.8172 H       1  UNL1        0.0000
     35 C           3.4454   17.9368   11.4391 C.ar    1  UNL1        0.0000
     36 H           2.3936   18.1830   11.4124 H       1  UNL1        0.0000
     37 C           2.8543   15.1687    6.5486 C.3     1  UNL1        0.0000
     38 H           2.6032   14.5866    7.4379 H       1  UNL1        0.0000
     39 H           2.1103   14.9415    5.7827 H       1  UNL1        0.0000
     40 C           4.1762   18.1319   12.5762 C.ar    1  UNL1        0.0000
     41 H           3.7140   18.5277   13.4673 H       1  UNL1        0.0000
     42 C           8.3374   17.2870   12.4812 C.3     1  UNL1        0.0000
     43 H           8.0472   16.6916   13.3598 H       1  UNL1        0.0000
     44 H           8.2655   18.3528   12.7427 H       1  UNL1        0.0000
     45 C           4.2203   14.7628    6.0010 C.3     1  UNL1        0.0000
     46 H           4.4109   15.3446    5.0969 H       1  UNL1        0.0000
     47 H           4.1806   13.6966    5.7282 H       1  UNL1        0.0000
     48 C           5.5447   17.8254   12.5976 C.ar    1  UNL1        0.0000
     49 H           6.0991   18.0046   13.5058 H       1  UNL1        0.0000
     50 C           9.6860   17.6579    7.0243 C.3     1  UNL1        0.0000
     51 H           9.7703   16.7400    6.4493 H       1  UNL1        0.0000
     52 H          10.2371   17.5452    7.9562 H       1  UNL1        0.0000
     53 H          10.1183   18.4828    6.4647 H       1  UNL1        0.0000
     54 C           7.0050   22.0152    8.3546 C.ar    1  UNL1        0.0000
     55 H           7.7106   21.9560    7.5401 H       1  UNL1        0.0000
     56 C           9.7587   16.9454   12.0609 C.3     1  UNL1        0.0000
     57 H          10.4477   17.1500   12.8756 H       1  UNL1        0.0000
     58 H          10.0378   17.5410   11.1961 H       1  UNL1        0.0000
     59 H           9.8218   15.8946   11.7921 H       1  UNL1        0.0000
     60 C           6.7400   23.2329    8.9548 C.ar    1  UNL1        0.0000
     61 H           7.2555   24.1202    8.6175 H       1  UNL1        0.0000
     62 C           5.8148   23.3185    9.9825 C.ar    1  UNL1        0.0000
     63 H           5.6153   24.2708   10.4517 H       1  UNL1        0.0000
     64 S           5.9683   19.1975    3.6325 S.2     1  UNL1        0.0000
@<TRIPOS>BOND
     1    64    24    2
     2    24     9    2
     3    46    45    1
     4    32    31    1
     5     9     1    1
     6    47    45    1
     7    39    37    1
     8    33    31    1
     9    12    11    1
    10    45    37    1
    11    45    10    1
    12    31    34    1
    13    31    10    1
    14    51    50    1
    15    53    50    1
    16    37    11    1
    17    37    38    1
    18    11    13    1
    19    11     2    1
    20    10     1    1
    21    10    25    1
    22    50    17    1
    23    50    52    1
    24     7    17    1
    25     7     1    1
    26    17    15    2
    27     1     2    1
    28     1     6    1
    29     1     3    1
    30    55    54    1
    31    28    25    1
    32    15    16    1
    33    15     5    1
    34     2    20    1
    35     6     5    1
    36    25    26    1
    37    25    27    1
    38     5    14    1
    39    54    14   ar
    40    54    60   ar
    41    61    60    1
    42    14    22   ar
    43    60    62   ar
    44    20    21    1
    45    20    18    1
    46     3     4    1
    47    22    23    1
    48    22    29   ar
    49    62    29   ar
    50    62    63    1
    51     4    18   ar
    52     4    19   ar
    53    18    35   ar
    54    29    30    1
    55    58    56    1
    56     8    19    1
    57     8    42    1
    58    36    35    1
    59    35    40   ar
    60    19    48   ar
    61    59    56    1
    62    56    42    1
    63    56    57    1
    64    42    44    1
    65    42    43    1
    66    40    48   ar
    67    40    41    1
    68    48    49    1
