@<TRIPOS>MOLECULE
CSD_code = QAMGAO | q = 1 | S = 0 | Stoichiometry = C26H38CoN4O4(1+) | MND = 6
 73 78 0 0 0
SMALL
GASTEIGER

@<TRIPOS>ATOM
      1 CO         -2.0669    0.8408   10.0289 Co.oh   1  UNL1        0.0000
      2 N          -2.1894    2.2917   11.2158 N.3     1  UNL1        0.0000
      3 N          -3.6786    0.0506   11.1380 N.4     1  UNL1        0.0000
      4 N          -1.9736   -0.6086    8.8336 N.3     1  UNL1        0.0000
      5 N          -3.3729    1.6820    8.5958 N.4     1  UNL1        0.0000
      6 O          -0.6136    1.5426    9.1233 O.3     1  UNL1        0.0000
      7 O           3.6939    3.4823    8.9193 O.3     1  UNL1        0.0000
      8 O          -0.8785    0.0883   11.2285 O.3     1  UNL1        0.0000
      9 O           3.1314   -1.8460   12.4877 O.3     1  UNL1        0.0000
     10 C          -0.0145    3.2034   10.7529 C.ar    1  UNL1        0.0000
     11 C           0.2508    2.3601    9.6332 C.ar    1  UNL1        0.0000
     12 C           1.5080    2.4554    9.0063 C.ar    1  UNL1        0.0000
     13 H           1.6806    1.8001    8.1677 H       1  UNL1        0.0000
     14 C           2.4684    3.3435    9.4503 C.ar    1  UNL1        0.0000
     15 C           2.1898    4.1860   10.5507 C.ar    1  UNL1        0.0000
     16 H           2.9567    4.8701   10.8731 H       1  UNL1        0.0000
     17 C           0.9831    4.1083   11.1758 C.ar    1  UNL1        0.0000
     18 H           0.7746    4.7451   12.0226 H       1  UNL1        0.0000
     19 C          -1.2283    3.1189   11.4663 C.3     1  UNL1        0.0000
     20 H          -1.3461    3.8157   12.2973 H       1  UNL1        0.0000
     21 C          -3.3377    2.2393   12.0938 C.3     1  UNL1        0.0000
     22 H          -4.2135    2.6641   11.5837 H       1  UNL1        0.0000
     23 H          -3.1674    2.8109   13.0122 H       1  UNL1        0.0000
     24 C          -3.5892    0.7695   12.4170 C.3     1  UNL1        0.0000
     25 H          -2.7320    0.3836   12.9679 H       1  UNL1        0.0000
     26 H          -4.4980    0.6577   13.0175 H       1  UNL1        0.0000
     27 C          -3.9440   -1.4072   11.2694 C.3     1  UNL1        0.0000
     28 H          -3.7358   -1.8417   10.2854 H       1  UNL1        0.0000
     29 C          -5.4144   -1.6614   11.6059 C.3     1  UNL1        0.0000
     30 H          -5.6683   -1.2692   12.5876 H       1  UNL1        0.0000
     31 H          -5.6057   -2.7306   11.6181 H       1  UNL1        0.0000
     32 H          -6.0768   -1.2120   10.8667 H       1  UNL1        0.0000
     33 C          -3.0364   -2.0873   12.2856 C.3     1  UNL1        0.0000
     34 H          -2.0039   -1.7902   12.1376 H       1  UNL1        0.0000
     35 H          -3.1029   -3.1642   12.1574 H       1  UNL1        0.0000
     36 H          -3.3348   -1.8517   13.3035 H       1  UNL1        0.0000
     37 C           4.0742    2.6700    7.8307 C.3     1  UNL1        0.0000
     38 H           4.0408    1.6094    8.0960 H       1  UNL1        0.0000
     39 H           5.0984    2.9537    7.5965 H       1  UNL1        0.0000
     40 H           3.4389    2.8495    6.9587 H       1  UNL1        0.0000
     41 C           0.0260   -1.5768    9.7475 C.ar    1  UNL1        0.0000
     42 C           0.0564   -0.7501   10.9143 C.ar    1  UNL1        0.0000
     43 C           1.1366   -0.8998   11.7946 C.ar    1  UNL1        0.0000
     44 H           1.1762   -0.2824   12.6773 H       1  UNL1        0.0000
     45 C           2.1530   -1.8149   11.5666 C.ar    1  UNL1        0.0000
     46 C           2.1112   -2.6284   10.4172 C.ar    1  UNL1        0.0000
     47 H           2.8899   -3.3458   10.2193 H       1  UNL1        0.0000
     48 C           1.0682   -2.4997    9.5425 C.ar    1  UNL1        0.0000
     49 H           1.0385   -3.1201    8.6584 H       1  UNL1        0.0000
     50 C          -1.0021   -1.4583    8.7868 C.3     1  UNL1        0.0000
     51 H          -0.9535   -2.1476    7.9420 H       1  UNL1        0.0000
     52 C          -2.9063   -0.5230    7.7315 C.3     1  UNL1        0.0000
     53 H          -3.8835   -0.9167    8.0434 H       1  UNL1        0.0000
     54 H          -2.5641   -1.1045    6.8687 H       1  UNL1        0.0000
     55 C          -3.0365    0.9529    7.3649 C.3     1  UNL1        0.0000
     56 H          -2.0703    1.3091    7.0092 H       1  UNL1        0.0000
     57 H          -3.7924    1.0893    6.5844 H       1  UNL1        0.0000
     58 C          -3.5514    3.1476    8.4137 C.3     1  UNL1        0.0000
     59 H          -3.5515    3.5778    9.4212 H       1  UNL1        0.0000
     60 C          -4.9001    3.4530    7.7599 C.3     1  UNL1        0.0000
     61 H          -4.9427    3.0692    6.7436 H       1  UNL1        0.0000
     62 H          -5.0468    4.5281    7.7131 H       1  UNL1        0.0000
     63 H          -5.7256    3.0280    8.3300 H       1  UNL1        0.0000
     64 C          -2.4169    3.7915    7.6283 C.3     1  UNL1        0.0000
     65 H          -1.4550    3.4597    8.0035 H       1  UNL1        0.0000
     66 H          -2.4724    4.8706    7.7424 H       1  UNL1        0.0000
     67 H          -2.4887    3.5619    6.5686 H       1  UNL1        0.0000
     68 C           4.2163   -2.7354   12.3233 C.3     1  UNL1        0.0000
     69 H           3.8839   -3.7771   12.3230 H       1  UNL1        0.0000
     70 H           4.8645   -2.5651   13.1808 H       1  UNL1        0.0000
     71 H           4.7706   -2.5252   11.4043 H       1  UNL1        0.0000
     72 H          -4.2994    1.3457    8.8681 H       1  UNL1        0.0000
     73 H          -4.5128    0.4197   10.6757 H       1  UNL1        0.0000
@<TRIPOS>BOND
     1    67    64    1
     2    57    55    1
     3    61    60    1
     4    54    52    1
     5    40    37    1
     6    56    55    1
     7    55    52    1
     8    55     5    1
     9    39    37    1
    10    64    66    1
    11    64    65    1
    12    64    58    1
    13    62    60    1
    14    52    53    1
    15    52     4    1
    16    60    63    1
    17    60    58    1
    18    37    38    1
    19    37     7    1
    20    51    50    1
    21    13    12    1
    22    58     5    1
    23    58    59    1
    24     5    72    1
    25     5     1    1
    26    49    48    1
    27    50     4    1
    28    50    41    1
    29     4     1    1
    30     7    14    1
    31    12    14   ar
    32    12    11   ar
    33     6    11    1
    34     6     1    1
    35    14    15   ar
    36    48    41   ar
    37    48    46   ar
    38    11    10   ar
    39    41    42   ar
    40     1     3    1
    41     1     2    1
    42     1     8    1
    43    47    46    1
    44    28    27    1
    45    46    45   ar
    46    15    16    1
    47    15    17   ar
    48    73     3    1
    49    10    17   ar
    50    10    19    1
    51    32    29    1
    52    42     8    1
    53    42    43   ar
    54     3    27    1
    55     3    24    1
    56    17    18    1
    57     2    19    1
    58     2    21    1
    59    27    29    1
    60    27    33    1
    61    71    68    1
    62    19    20    1
    63    45    43   ar
    64    45     9    1
    65    22    21    1
    66    29    31    1
    67    29    30    1
    68    43    44    1
    69    21    24    1
    70    21    23    1
    71    34    33    1
    72    35    33    1
    73    33    36    1
    74    69    68    1
    75    68     9    1
    76    68    70    1
    77    24    25    1
    78    24    26    1
