@<TRIPOS>MOLECULE
CSD_code = QAPWOT | q = 1 | S = 0 | Stoichiometry = C9H18Cl2CoN4(1+) | MND = 6
 34 36 0 0 0
SMALL
GASTEIGER

@<TRIPOS>ATOM
      1 CO          1.7726    9.3983    4.0005 Co.oh   1  UNL1        0.0000
      2 CL          1.6733   11.5760    3.5221 Cl      1  UNL1        0.0000
      3 CL          1.9221    7.2534    4.5476 Cl      1  UNL1        0.0000
      4 N          -0.1205    9.5435    4.5734 N.4     1  UNL1        0.0000
      5 N           2.1726    9.7804    5.8530 N.4     1  UNL1        0.0000
      6 N           3.7329    9.4817    3.7476 N.4     1  UNL1        0.0000
      7 N           1.3646    8.9410    2.1581 N.pl3   1  UNL1        0.0000
      8 C          -0.1867    9.6644    6.0454 C.3     1  UNL1        0.0000
      9 C           1.0413   10.4540    6.4898 C.3     1  UNL1        0.0000
     10 C           3.4886   10.4087    5.9650 C.3     1  UNL1        0.0000
     11 C           4.3973    9.5758    5.0649 C.3     1  UNL1        0.0000
     12 C           1.8955    9.6088    1.1294 C.3     1  UNL1        0.0000
     13 C           1.6309    9.2966   -0.1919 C.2     1  UNL1        0.0000
     14 C           0.7784    8.2438   -0.4811 C.2     1  UNL1        0.0000
     15 C           0.2252    7.5487    0.5817 C.2     1  UNL1        0.0000
     16 C           0.5412    7.9267    1.8741 C.2     1  UNL1        0.0000
     17 H          -0.4420   10.4258    4.1640 H       1  UNL1        0.0000
     18 H          -0.7697    8.8173    4.2701 H       1  UNL1        0.0000
     19 H           2.2427    8.8409    6.2599 H       1  UNL1        0.0000
     20 H           4.1453    8.7139    3.2158 H       1  UNL1        0.0000
     21 H           3.9195   10.3489    3.2379 H       1  UNL1        0.0000
     22 H          -0.1503    8.6592    6.4735 H       1  UNL1        0.0000
     23 H          -1.1115   10.1530    6.3645 H       1  UNL1        0.0000
     24 H           0.9901   11.4808    6.1205 H       1  UNL1        0.0000
     25 H           1.1359   10.4682    7.5800 H       1  UNL1        0.0000
     26 H           3.8487   10.4216    6.9983 H       1  UNL1        0.0000
     27 H           3.4200   11.4344    5.5947 H       1  UNL1        0.0000
     28 H           5.3922   10.0210    4.9789 H       1  UNL1        0.0000
     29 H           4.4947    8.5672    5.4747 H       1  UNL1        0.0000
     30 H           2.5350   10.4479    1.3584 H       1  UNL1        0.0000
     31 H           2.0900    9.8763   -0.9761 H       1  UNL1        0.0000
     32 H           0.5531    7.9737   -1.5007 H       1  UNL1        0.0000
     33 H          -0.4434    6.7187    0.4206 H       1  UNL1        0.0000
     34 H           0.1403    7.3661    2.7054 H       1  UNL1        0.0000
@<TRIPOS>BOND
     1    32    14    1
     2    31    13    1
     3    14    13    2
     4    14    15    1
     5    13    12    1
     6    33    15    1
     7    15    16    2
     8    12    30    1
     9    12     7    1
    10    16     7    1
    11    16    34    1
    12     7     1    1
    13    20     6    1
    14    21     6    1
    15     2     1    1
    16     6     1    1
    17     6    11    1
    18     1     3    1
    19     1     4    1
    20     1     5    1
    21    17     4    1
    22    18     4    1
    23     4     8    1
    24    28    11    1
    25    11    29    1
    26    11    10    1
    27    27    10    1
    28     5    10    1
    29     5    19    1
    30     5     9    1
    31    10    26    1
    32     8    23    1
    33     8    22    1
    34     8     9    1
    35    24     9    1
    36     9    25    1
