@<TRIPOS>MOLECULE
CSD_code = QAWQUB | q = 0 | S = 0 | Stoichiometry = C11H17CoN12 | MND = 6
 41 43 0 0 0
SMALL
GASTEIGER

@<TRIPOS>ATOM
      1 CO          7.2623    2.8712   16.5540 Co.oh   1  UNL1        0.0000
      2 N           5.8121    1.4638   16.2179 N.4     1  UNL1        0.0000
      3 H           6.0805    0.7065   15.5909 H       1  UNL1        0.0000
      4 H           5.6269    1.0497   17.1326 H       1  UNL1        0.0000
      5 C           4.5987    2.1289   15.7228 C.3     1  UNL1        0.0000
      6 H           3.6964    1.5453   15.9379 H       1  UNL1        0.0000
      7 H           4.6913    2.2434   14.6392 H       1  UNL1        0.0000
      8 C           4.5096    3.5146   16.3673 C.3     1  UNL1        0.0000
      9 H           3.6553    4.0782   15.9704 H       1  UNL1        0.0000
     10 H           4.4001    3.4100   17.4493 H       1  UNL1        0.0000
     11 N           5.7848    4.1675   16.0987 N.4     1  UNL1        0.0000
     12 H           5.8530    4.3368   15.0936 H       1  UNL1        0.0000
     13 C           6.0954    5.4023   16.8034 C.3     1  UNL1        0.0000
     14 H           5.5261    6.2638   16.4302 H       1  UNL1        0.0000
     15 H           5.8712    5.2637   17.8641 H       1  UNL1        0.0000
     16 C           7.6003    5.6271   16.6223 C.3     1  UNL1        0.0000
     17 H           7.9564    6.4394   17.2641 H       1  UNL1        0.0000
     18 H           7.8064    5.8856   15.5769 H       1  UNL1        0.0000
     19 N           8.2893    4.3786   16.9296 N.3     1  UNL1        0.0000
     20 C           9.4142    4.3885   17.5334 C.3     1  UNL1        0.0000
     21 H           9.8285    3.4160   17.7824 H       1  UNL1        0.0000
     22 C          10.1897    5.5473   17.9689 C.ar    1  UNL1        0.0000
     23 C          10.5265    6.5909   17.1078 C.ar    1  UNL1        0.0000
     24 H          10.2299    6.5493   16.0704 H       1  UNL1        0.0000
     25 C          11.2929    7.6467   17.5676 C.ar    1  UNL1        0.0000
     26 H          11.5641    8.4436   16.8916 H       1  UNL1        0.0000
     27 C          11.7103    7.6825   18.8877 C.ar    1  UNL1        0.0000
     28 H          12.3015    8.5127   19.2439 H       1  UNL1        0.0000
     29 C          11.3782    6.6471   19.7481 C.ar    1  UNL1        0.0000
     30 H          11.7070    6.6715   20.7759 H       1  UNL1        0.0000
     31 C          10.6371    5.5747   19.2911 C.ar    1  UNL1        0.0000
     32 H          10.3656    4.7679   19.9552 H       1  UNL1        0.0000
     33 N           7.6813    2.8547   14.7172 N.2     1  UNL1        0.0000
     34 N           8.5526    3.4049   14.1603 N.2     1  UNL1        0.0000
     35 N           9.3203    3.9351   13.5130 N.2     1  UNL1        0.0000
     36 N           8.6165    1.6590   16.9238 N.2     1  UNL1        0.0000
     37 N           8.5832    0.4995   16.7546 N.2     1  UNL1        0.0000
     38 N           8.6729   -0.6274   16.6513 N.2     1  UNL1        0.0000
     39 N           6.6987    2.8266   18.3711 N.2     1  UNL1        0.0000
     40 N           7.3110    3.1440   19.3169 N.2     1  UNL1        0.0000
     41 N           7.8090    3.4664   20.2853 N.2     1  UNL1        0.0000
@<TRIPOS>BOND
     1    35    34    2
     2    34    33    2
     3     7     5    1
     4    33     1    1
     5    12    11    1
     6    18    16    1
     7     3     2    1
     8     5     6    1
     9     5     2    1
    10     5     8    1
    11     9     8    1
    12    24    23    1
    13    11     8    1
    14    11     1    1
    15    11    13    1
    16     2     1    1
    17     2     4    1
    18     8    10    1
    19    14    13    1
    20     1    36    1
    21     1    19    1
    22     1    39    1
    23    16    13    1
    24    16    19    1
    25    16    17    1
    26    38    37    2
    27    37    36    2
    28    13    15    1
    29    26    25    1
    30    19    20    1
    31    23    25   ar
    32    23    22   ar
    33    20    21    1
    34    20    22    1
    35    25    27   ar
    36    22    31   ar
    37    39    40    2
    38    27    28    1
    39    27    29   ar
    40    31    29   ar
    41    31    32    1
    42    40    41    2
    43    29    30    1
