@<TRIPOS>MOLECULE
CSD_code = QAXFUQ | q = 0 | S = 0 | Stoichiometry = C10H18CoN5O5 | MND = 6
 39 42 0 0 0
SMALL
GASTEIGER

@<TRIPOS>ATOM
      1 CO          1.4110    1.2670   16.6324 Co.oh   1  UNL1        0.0000
      2 N          -0.2067    2.4289   16.2151 N.4     1  UNL1        0.0000
      3 N           1.5791    1.0764   14.8275 N.am    1  UNL1        0.0000
      4 N           2.6616    3.0058   16.6345 N.4     1  UNL1        0.0000
      5 N           1.4649    1.5560   18.6412 N.4     1  UNL1        0.0000
      6 N          -0.2033   -1.2214   16.8269 N.1     1  UNL1        0.0000
      7 O          -2.4095    2.3603   15.4974 O.3     1  UNL1        0.0000
      8 O           0.7688    4.7639   15.1464 O.3     1  UNL1        0.0000
      9 O           1.0792    2.0286   12.8113 O.2     1  UNL1        0.0000
     10 O           4.6756   -0.4750   15.5638 O.2     1  UNL1        0.0000
     11 O           2.9941    0.3101   16.7507 O.3     1  UNL1        0.0000
     12 C          -1.5976    2.0528   16.5904 C.3     1  UNL1        0.0000
     13 C          -1.6214    2.0139   14.3791 C.3     1  UNL1        0.0000
     14 C          -0.2463    2.6026   14.7354 C.3     1  UNL1        0.0000
     15 C          -0.2126    4.0904   14.3644 C.3     1  UNL1        0.0000
     16 C           0.9016    1.8531   14.0100 C.2     1  UNL1        0.0000
     17 C           2.6953    0.2677   14.3890 C.3     1  UNL1        0.0000
     18 C           3.5571   -0.0142   15.6319 C.2     1  UNL1        0.0000
     19 C           0.4310   -0.2714   16.7283 C.1     1  UNL1        0.0000
     20 C           3.1274    3.1999   18.0078 C.3     1  UNL1        0.0000
     21 C           1.9719    2.8955   18.9613 C.3     1  UNL1        0.0000
     22 H           3.4573    2.8504   16.0206 H       1  UNL1        0.0000
     23 H           2.1775    3.8324   16.2821 H       1  UNL1        0.0000
     24 H           0.6419    1.3383   19.2004 H       1  UNL1        0.0000
     25 H           2.1797    0.8684   18.8902 H       1  UNL1        0.0000
     26 H           1.0343    5.5588   14.6753 H       1  UNL1        0.0000
     27 H          -1.6267    0.9736   16.7969 H       1  UNL1        0.0000
     28 H          -1.9555    2.6101   17.4600 H       1  UNL1        0.0000
     29 H          -2.0612    2.4480   13.4843 H       1  UNL1        0.0000
     30 H          -1.5493    0.9242   14.2746 H       1  UNL1        0.0000
     31 H           0.0225    4.1502   13.2974 H       1  UNL1        0.0000
     32 H          -1.1957    4.5460   14.5506 H       1  UNL1        0.0000
     33 H           3.2754    0.7803   13.6147 H       1  UNL1        0.0000
     34 H           2.3481   -0.6890   13.9810 H       1  UNL1        0.0000
     35 H           3.9312    2.4839   18.1966 H       1  UNL1        0.0000
     36 H           3.5086    4.2130   18.1865 H       1  UNL1        0.0000
     37 H           1.1672    3.6227   18.8157 H       1  UNL1        0.0000
     38 H           2.3153    2.9657   20.0006 H       1  UNL1        0.0000
     39 H          -0.0147    3.3594   16.5882 H       1  UNL1        0.0000
@<TRIPOS>BOND
     1     9    16    2
     2    31    15    1
     3    29    13    1
     4    33    17    1
     5    34    17    1
     6    16    14    1
     7    16     3   am
     8    30    13    1
     9    15    32    1
    10    15    14    1
    11    15     8    1
    12    13    14    1
    13    13     7    1
    14    17     3    1
    15    17    18    1
    16    26     8    1
    17    14     2    1
    18     3     1    1
    19     7    12    1
    20    10    18    2
    21    18    11    1
    22    22     4    1
    23     2    39    1
    24     2    12    1
    25     2     1    1
    26    23     4    1
    27    12    27    1
    28    12    28    1
    29     1     4    1
    30     1    19    1
    31     1    11    1
    32     1     5    1
    33     4    20    1
    34    19     6    3
    35    20    36    1
    36    20    35    1
    37    20    21    1
    38     5    25    1
    39     5    21    1
    40     5    24    1
    41    37    21    1
    42    21    38    1
