@<TRIPOS>MOLECULE
CSD_code = QERSEM | q = 0 | S = 0 | Stoichiometry = C23H26CoN3O6 | MND = 6
 59 63 0 0 0
SMALL
GASTEIGER

@<TRIPOS>ATOM
      1 CO         -1.6992    8.1194   13.7998 Co.oh   1  UNL1        0.0000
      2 O          -3.2170    7.7415   12.8350 O.3     1  UNL1        0.0000
      3 O          -0.1370    8.4755   14.8078 O.2     1  UNL1        0.0000
      4 O           2.1704    7.4723   16.2398 O.3     1  UNL1        0.0000
      5 O          -1.8956    6.4575   14.8252 O.3     1  UNL1        0.0000
      6 O          -1.4403    9.6227   12.7626 O.3     1  UNL1        0.0000
      7 O          -2.8111    8.9973   15.0796 O.2     1  UNL1        0.0000
      8 N          -0.5588    7.2208   12.6887 N.pl3   1  UNL1        0.0000
      9 N           0.7227    7.2060   13.1356 N.2     1  UNL1        0.0000
     10 N          -1.9966    5.3008   16.7534 N.3     1  UNL1        0.0000
     11 C          -3.2740    7.1276   11.7006 C.ar    1  UNL1        0.0000
     12 C          -2.1530    6.5519   11.0291 C.ar    1  UNL1        0.0000
     13 C          -2.3452    5.8982    9.7994 C.ar    1  UNL1        0.0000
     14 H          -1.4824    5.4699    9.3080 H       1  UNL1        0.0000
     15 C          -3.5846    5.7994    9.2224 C.ar    1  UNL1        0.0000
     16 H          -3.7125    5.2957    8.2763 H       1  UNL1        0.0000
     17 C          -4.6869    6.3606    9.8724 C.ar    1  UNL1        0.0000
     18 H          -5.6668    6.2875    9.4223 H       1  UNL1        0.0000
     19 C          -4.5378    7.0032   11.0729 C.ar    1  UNL1        0.0000
     20 H          -5.3842    7.4395   11.5815 H       1  UNL1        0.0000
     21 C          -0.8454    6.6228   11.5793 C.3     1  UNL1        0.0000
     22 H          -0.0292    6.1433   11.0439 H       1  UNL1        0.0000
     23 C           0.8400    7.8816   14.2423 C.2     1  UNL1        0.0000
     24 C           2.2059    7.9248   14.9029 C.3     1  UNL1        0.0000
     25 H           2.9164    7.3486   14.2999 H       1  UNL1        0.0000
     26 H           2.5382    8.9640   14.9733 H       1  UNL1        0.0000
     27 C           1.8597    6.1734   16.4922 C.ar    1  UNL1        0.0000
     28 C           1.8241    5.8180   17.8429 C.ar    1  UNL1        0.0000
     29 H           2.0274    6.5808   18.5780 H       1  UNL1        0.0000
     30 C           1.5511    4.5190   18.2178 C.ar    1  UNL1        0.0000
     31 H           1.5409    4.2569   19.2664 H       1  UNL1        0.0000
     32 C           1.3006    3.5517   17.2558 C.ar    1  UNL1        0.0000
     33 H           1.0943    2.5325   17.5491 H       1  UNL1        0.0000
     34 C           1.3278    3.9040   15.9184 C.ar    1  UNL1        0.0000
     35 H           1.1385    3.1588   15.1593 H       1  UNL1        0.0000
     36 C           1.6055    5.2033   15.5274 C.ar    1  UNL1        0.0000
     37 H           1.6168    5.4512   14.4787 H       1  UNL1        0.0000
     38 C          -1.8346    6.4160   16.0568 C.3     1  UNL1        0.0000
     39 H          -1.6418    7.3107   16.6579 H       1  UNL1        0.0000
     40 C          -2.2531    4.0433   16.0900 C.3     1  UNL1        0.0000
     41 H          -2.3256    4.2285   15.0205 H       1  UNL1        0.0000
     42 H          -3.1893    3.6143   16.4508 H       1  UNL1        0.0000
     43 H          -1.4376    3.3459   16.2862 H       1  UNL1        0.0000
     44 C          -1.9104    5.2638   18.1894 C.3     1  UNL1        0.0000
     45 H          -1.6954    6.2571   18.5755 H       1  UNL1        0.0000
     46 H          -1.1110    4.5862   18.4962 H       1  UNL1        0.0000
     47 H          -2.8544    4.9119   18.6124 H       1  UNL1        0.0000
     48 C          -1.9823   10.7521   12.9512 C.3     1  UNL1        0.0000
     49 C          -2.8392   11.0917   13.9922 C.2     1  UNL1        0.0000
     50 H          -3.2361   12.0934   14.0278 H       1  UNL1        0.0000
     51 C          -3.2020   10.1901   14.9965 C.2     1  UNL1        0.0000
     52 C          -1.6418   11.8184   11.9336 C.3     1  UNL1        0.0000
     53 H          -0.9699   11.4066   11.1862 H       1  UNL1        0.0000
     54 H          -1.1651   12.6630   12.4257 H       1  UNL1        0.0000
     55 H          -2.5505   12.1689   11.4503 H       1  UNL1        0.0000
     56 C          -4.1289   10.6894   16.0842 C.3     1  UNL1        0.0000
     57 H          -4.3601    9.8805   16.7716 H       1  UNL1        0.0000
     58 H          -5.0490   11.0624   15.6412 H       1  UNL1        0.0000
     59 H          -3.6559   11.5039   16.6284 H       1  UNL1        0.0000
@<TRIPOS>BOND
     1    16    15    1
     2    15    13   ar
     3    15    17   ar
     4    14    13    1
     5    18    17    1
     6    13    12   ar
     7    17    19   ar
     8    12    21    1
     9    12    11   ar
    10    22    21    1
    11    19    20    1
    12    19    11   ar
    13    53    52    1
    14    55    52    1
    15    21     8    1
    16    11     2    1
    17    52    54    1
    18    52    48    1
    19     8     9    1
    20     8     1    1
    21     6    48    1
    22     6     1    1
    23     2     1    1
    24    48    49    1
    25     9    23    2
    26     1     3    1
    27     1     5    1
    28     1     7    1
    29    49    50    1
    30    49    51    2
    31    23     3    1
    32    23    24    1
    33    25    24    1
    34    37    36    1
    35     5    38    1
    36    24    26    1
    37    24     4    1
    38    51     7    1
    39    51    56    1
    40    41    40    1
    41    35    34    1
    42    36    34   ar
    43    36    27   ar
    44    58    56    1
    45    34    32   ar
    46    38    39    1
    47    38    10    1
    48    56    59    1
    49    56    57    1
    50    40    43    1
    51    40    42    1
    52    40    10    1
    53     4    27    1
    54    27    28   ar
    55    10    44    1
    56    32    33    1
    57    32    30   ar
    58    28    30   ar
    59    28    29    1
    60    44    46    1
    61    44    45    1
    62    44    47    1
    63    30    31    1
