@<TRIPOS>MOLECULE
CSD_code = QEWGEH | q = 0 | S = 0 | Stoichiometry = C58H61CoF2N6O6 | MND = 6
 134 143 0 0 0
SMALL
GASTEIGER

@<TRIPOS>ATOM
      1 CO          9.1906   10.0831    9.2565 Co.oh   1  UNL1        0.0000
      2 F          13.5697    5.5822   12.4530 F       1  UNL1        0.0000
      3 F          13.0063    9.5415   16.6406 F       1  UNL1        0.0000
      4 O          10.9355    4.3099    6.8977 O.2     1  UNL1        0.0000
      5 O           8.6511    8.4057    8.4613 O.3     1  UNL1        0.0000
      6 O           9.7095   11.7068    9.9137 O.3     1  UNL1        0.0000
      7 O           6.8028   10.5611   16.2147 O.2     1  UNL1        0.0000
      8 O           7.4393   10.3673    9.9087 O.2     1  UNL1        0.0000
      9 O          10.8952    9.7077    8.6286 O.3     1  UNL1        0.0000
     10 N           9.6241    6.0584    7.5688 N.am    1  UNL1        0.0000
     11 H           9.5717    6.8067    8.2548 H       1  UNL1        0.0000
     12 N           8.3618    9.7897    6.7332 N.3     1  UNL1        0.0000
     13 H           8.1961    9.9874    5.7496 H       1  UNL1        0.0000
     14 N           8.7830   10.7788    7.5648 N.3     1  UNL1        0.0000
     15 N           7.3307   10.1491   14.0217 N.am    1  UNL1        0.0000
     16 H           8.0834    9.8542   13.3875 H       1  UNL1        0.0000
     17 N           8.4507    9.5186   11.7449 N.2     1  UNL1        0.0000
     18 N           9.5215    9.4288   10.9219 N.pl3   1  UNL1        0.0000
     19 C          10.7961    5.7894   10.1599 C.ar    1  UNL1        0.0000
     20 H           9.7486    6.0510   10.1832 H       1  UNL1        0.0000
     21 C          11.5277    5.8710   11.3287 C.ar    1  UNL1        0.0000
     22 H          11.0751    6.2002   12.2500 H       1  UNL1        0.0000
     23 C          12.8629    5.5100   11.3095 C.ar    1  UNL1        0.0000
     24 C          13.4861    5.0577   10.1604 C.ar    1  UNL1        0.0000
     25 H          14.5261    4.7746   10.1827 H       1  UNL1        0.0000
     26 C          12.7401    4.9628    9.0032 C.ar    1  UNL1        0.0000
     27 H          13.1842    4.5930    8.0916 H       1  UNL1        0.0000
     28 C          11.3979    5.3335    8.9893 C.ar    1  UNL1        0.0000
     29 C          10.6469    5.1587    7.7137 C.2     1  UNL1        0.0000
     30 C           8.7515    6.2019    6.5074 C.ar    1  UNL1        0.0000
     31 C           8.5329    5.1826    5.5805 C.ar    1  UNL1        0.0000
     32 H           9.0736    4.2576    5.6899 H       1  UNL1        0.0000
     33 C           7.6414    5.3571    4.5419 C.ar    1  UNL1        0.0000
     34 H           7.4782    4.5523    3.8419 H       1  UNL1        0.0000
     35 C           6.9461    6.5504    4.3993 C.ar    1  UNL1        0.0000
     36 H           6.2372    6.6758    3.5959 H       1  UNL1        0.0000
     37 C           7.1663    7.5781    5.2921 C.ar    1  UNL1        0.0000
     38 H           6.6071    8.4975    5.1966 H       1  UNL1        0.0000
     39 C           8.0671    7.4276    6.3489 C.ar    1  UNL1        0.0000
     40 C           8.3501    8.5462    7.2492 C.3     1  UNL1        0.0000
     41 C           8.9743   11.9821    7.1284 C.3     1  UNL1        0.0000
     42 H           8.7556   12.2001    6.0809 H       1  UNL1        0.0000
     43 C           9.4570   13.0370    7.9330 C.ar    1  UNL1        0.0000
     44 C           9.6166   14.3033    7.3278 C.ar    1  UNL1        0.0000
     45 H           9.3611   14.3821    6.2831 H       1  UNL1        0.0000
     46 C          10.0743   15.3816    8.0301 C.ar    1  UNL1        0.0000
     47 C          10.2817   16.7596    7.4228 C.3     1  UNL1        0.0000
     48 C           9.9302   16.7985    5.9330 C.3     1  UNL1        0.0000
     49 H          10.5510   16.1074    5.3677 H       1  UNL1        0.0000
     50 H          10.1036   17.8002    5.5453 H       1  UNL1        0.0000
     51 H           8.8830   16.5533    5.7724 H       1  UNL1        0.0000
     52 C           9.3897   17.7741    8.1516 C.3     1  UNL1        0.0000
     53 H           8.3450   17.4809    8.0725 H       1  UNL1        0.0000
     54 H           9.5065   18.7609    7.7087 H       1  UNL1        0.0000
     55 H           9.6445   17.8434    9.2053 H       1  UNL1        0.0000
     56 C          11.7565   17.1572    7.5762 C.3     1  UNL1        0.0000
     57 H          12.0473   17.2099    8.6215 H       1  UNL1        0.0000
     58 H          11.9305   18.1319    7.1255 H       1  UNL1        0.0000
     59 H          12.3949   16.4281    7.0816 H       1  UNL1        0.0000
     60 C          10.3583   15.1875    9.3976 C.ar    1  UNL1        0.0000
     61 H          10.6980   16.0427    9.9556 H       1  UNL1        0.0000
     62 C          10.2268   13.9907   10.0515 C.ar    1  UNL1        0.0000
     63 C          10.5162   13.8530   11.5424 C.3     1  UNL1        0.0000
     64 C          10.9475   15.1752   12.1875 C.3     1  UNL1        0.0000
     65 H          11.8708   15.5474   11.7490 H       1  UNL1        0.0000
     66 H          11.1262   15.0097   13.2479 H       1  UNL1        0.0000
     67 H          10.1721   15.9324   12.0957 H       1  UNL1        0.0000
     68 C          11.6489   12.8392   11.7588 C.3     1  UNL1        0.0000
     69 H          11.3805   11.8648   11.3639 H       1  UNL1        0.0000
     70 H          11.8598   12.7426   12.8220 H       1  UNL1        0.0000
     71 H          12.5536   13.1749   11.2553 H       1  UNL1        0.0000
     72 C           9.2374   13.3861   12.2546 C.3     1  UNL1        0.0000
     73 H           8.4336   14.1011   12.0891 H       1  UNL1        0.0000
     74 H           9.4115   13.3078   13.3261 H       1  UNL1        0.0000
     75 H           8.9155   12.4204   11.8779 H       1  UNL1        0.0000
     76 C           9.7864   12.8420    9.3107 C.ar    1  UNL1        0.0000
     77 C          10.0712   10.4606   14.7505 C.ar    1  UNL1        0.0000
     78 H           9.8316   10.9071   13.7978 H       1  UNL1        0.0000
     79 C          11.4003   10.2722   15.0839 C.ar    1  UNL1        0.0000
     80 H          12.1913   10.5416   14.4009 H       1  UNL1        0.0000
     81 C          11.7104    9.7322   16.3197 C.ar    1  UNL1        0.0000
     82 C          10.7314    9.3935   17.2370 C.ar    1  UNL1        0.0000
     83 H          11.0111    8.9866   18.1957 H       1  UNL1        0.0000
     84 C           9.4077    9.5939   16.8942 C.ar    1  UNL1        0.0000
     85 H           8.6175    9.3524   17.5886 H       1  UNL1        0.0000
     86 C           9.0646   10.1095   15.6474 C.ar    1  UNL1        0.0000
     87 C           7.6103   10.3067   15.3426 C.2     1  UNL1        0.0000
     88 C           6.1461   10.3446   13.3308 C.ar    1  UNL1        0.0000
     89 C           4.9432   10.6294   13.9739 C.ar    1  UNL1        0.0000
     90 H           4.9328   10.6894   15.0497 H       1  UNL1        0.0000
     91 C           3.7863   10.8308   13.2466 C.ar    1  UNL1        0.0000
     92 H           2.8632   11.0419   13.7655 H       1  UNL1        0.0000
     93 C           3.8054   10.7647   11.8617 C.ar    1  UNL1        0.0000
     94 H           2.9004   10.9233   11.2949 H       1  UNL1        0.0000
     95 C           4.9930   10.4982   11.2113 C.ar    1  UNL1        0.0000
     96 H           5.0353   10.4525   10.1334 H       1  UNL1        0.0000
     97 C           6.1711   10.2777   11.9213 C.ar    1  UNL1        0.0000
     98 C           7.4014   10.0395   11.1484 C.2     1  UNL1        0.0000
     99 C          10.6720    9.1191   11.4289 C.3     1  UNL1        0.0000
    100 H          10.7012    8.8926   12.4923 H       1  UNL1        0.0000
    101 C          11.8952    9.0819   10.7075 C.ar    1  UNL1        0.0000
    102 C          13.0768    8.8235   11.4265 C.ar    1  UNL1        0.0000
    103 H          12.9840    8.6679   12.4891 H       1  UNL1        0.0000
    104 C          14.2998    8.7908   10.8088 C.ar    1  UNL1        0.0000
    105 C          15.6170    8.6454   11.5559 C.3     1  UNL1        0.0000
    106 C          15.4216    8.5513   13.0713 C.3     1  UNL1        0.0000
    107 H          16.3910    8.4599   13.5566 H       1  UNL1        0.0000
    108 H          14.8326    7.6782   13.3377 H       1  UNL1        0.0000
    109 H          14.9359    9.4432   13.4593 H       1  UNL1        0.0000
    110 C          16.3557    7.3836   11.0926 C.3     1  UNL1        0.0000
    111 H          16.4747    7.3623   10.0126 H       1  UNL1        0.0000
    112 H          15.8053    6.4989   11.3988 H       1  UNL1        0.0000
    113 H          17.3438    7.3435   11.5464 H       1  UNL1        0.0000
    114 C          16.4766    9.8846   11.2618 C.3     1  UNL1        0.0000
    115 H          16.7360    9.9480   10.2086 H       1  UNL1        0.0000
    116 H          17.3989    9.8458   11.8373 H       1  UNL1        0.0000
    117 H          15.9367   10.7886   11.5350 H       1  UNL1        0.0000
    118 C          14.3150    8.9410    9.4121 C.ar    1  UNL1        0.0000
    119 H          15.2663    8.8624    8.9144 H       1  UNL1        0.0000
    120 C          13.1984    9.1999    8.6531 C.ar    1  UNL1        0.0000
    121 C          13.2713    9.3609    7.1386 C.3     1  UNL1        0.0000
    122 C          12.3076    8.3631    6.4783 C.3     1  UNL1        0.0000
    123 H          12.5814    7.3429    6.7421 H       1  UNL1        0.0000
    124 H          12.3452    8.4622    5.3950 H       1  UNL1        0.0000
    125 H          11.2895    8.5447    6.8076 H       1  UNL1        0.0000
    126 C          12.8787   10.7983    6.7671 C.3     1  UNL1        0.0000
    127 H          11.8842   11.0299    7.1358 H       1  UNL1        0.0000
    128 H          12.8936   10.9261    5.6861 H       1  UNL1        0.0000
    129 H          13.5795   11.5030    7.2100 H       1  UNL1        0.0000
    130 C          14.6708    9.0917    6.5761 C.3     1  UNL1        0.0000
    131 H          15.3944    9.8101    6.9541 H       1  UNL1        0.0000
    132 H          14.6440    9.1867    5.4922 H       1  UNL1        0.0000
    133 H          15.0033    8.0844    6.8164 H       1  UNL1        0.0000
    134 C          11.9419    9.3491    9.3124 C.ar    1  UNL1        0.0000
@<TRIPOS>BOND
     1    36    35    1
     2    34    33    1
     3    35    33   ar
     4    35    37   ar
     5    33    31   ar
     6    38    37    1
     7    37    39   ar
     8    49    48    1
     9   124   122    1
    10   132   130    1
    11    50    48    1
    12    31    32    1
    13    31    30   ar
    14   128   126    1
    15    13    12    1
    16    51    48    1
    17    48    47    1
    18    42    41    1
    19    45    44    1
    20    39    30   ar
    21    39    40    1
    22   122   123    1
    23   122   125    1
    24   122   121    1
    25    30    10    1
    26   130   133    1
    27   130   131    1
    28   130   121    1
    29    12    40    1
    30    12    14    1
    31   126   127    1
    32   126   121    1
    33   126   129    1
    34     4    29    2
    35    59    56    1
    36    58    56    1
    37    41    14    1
    38    41    43    1
    39   121   120    1
    40    40     5    1
    41    44    43   ar
    42    44    46   ar
    43    47    56    1
    44    47    46    1
    45    47    52    1
    46    14     1    1
    47    10    29   am
    48    10    11    1
    49    56    57    1
    50    54    52    1
    51    29    28    1
    52    43    76   ar
    53    46    60   ar
    54    53    52    1
    55    27    26    1
    56    52    55    1
    57     5     1    1
    58     9     1    1
    59     9   134    1
    60   120   134   ar
    61   120   118   ar
    62   119   118    1
    63    28    26   ar
    64    28    19   ar
    65    26    24   ar
    66     1     8    1
    67     1     6    1
    68     1    18    1
    69    76     6    1
    70    76    62   ar
    71   134   101   ar
    72    60    61    1
    73    60    62   ar
    74   118   104   ar
    75     8    98    1
    76   111   110    1
    77    62    63    1
    78    96    95    1
    79    19    20    1
    80    19    21   ar
    81    24    25    1
    82    24    23   ar
    83   115   114    1
    84   101   102   ar
    85   101    99    1
    86   104   102   ar
    87   104   105    1
    88    18    99    1
    89    18    17    1
    90   110   112    1
    91   110   113    1
    92   110   105    1
    93    98    17    2
    94    98    97    1
    95    95    93   ar
    96    95    97   ar
    97    71    68    1
    98   114   117    1
    99   114   105    1
   100   114   116    1
   101    94    93    1
   102    23    21   ar
   103    23     2    1
   104    21    22    1
   105    69    68    1
   106   102   103    1
   107    99   100    1
   108    63    68    1
   109    63    64    1
   110    63    72    1
   111   105   106    1
   112    65    64    1
   113    68    70    1
   114    93    91   ar
   115    75    72    1
   116    97    88   ar
   117    73    72    1
   118    67    64    1
   119    64    66    1
   120    72    74    1
   121   106   108    1
   122   106   109    1
   123   106   107    1
   124    91    92    1
   125    91    89   ar
   126    88    89   ar
   127    88    15    1
   128    16    15    1
   129    78    77    1
   130    89    90    1
   131    15    87   am
   132    80    79    1
   133    77    79   ar
   134    77    86   ar
   135    79    81   ar
   136    87    86    1
   137    87     7    2
   138    86    84   ar
   139    81     3    1
   140    81    82   ar
   141    84    82   ar
   142    84    85    1
   143    82    83    1
