@<TRIPOS>MOLECULE
CSD_code = QIGRIH | q = 0 | S = 0 | Stoichiometry = C9H17CoN6 | MND = 6
 33 34 0 0 0
SMALL
GASTEIGER

@<TRIPOS>ATOM
      1 CO          2.6386    1.0040    3.9059 Co.oh   1  UNL1        0.0000
      2 N           3.7665    0.5468    5.5382 N.4     1  UNL1        0.0000
      3 H           4.7456    0.7319    5.3093 H       1  UNL1        0.0000
      4 H           3.5379    1.1314    6.3435 H       1  UNL1        0.0000
      5 N           2.5324   -1.1187    3.7070 N.4     1  UNL1        0.0000
      6 H           1.6361   -1.3573    4.1391 H       1  UNL1        0.0000
      7 N           1.4730    1.3075    2.2281 N.4     1  UNL1        0.0000
      8 H           0.5221    1.1524    2.5800 H       1  UNL1        0.0000
      9 N           5.1427    0.8574    2.2237 N.1     1  UNL1        0.0000
     10 N           2.9758    3.8839    4.5944 N.1     1  UNL1        0.0000
     11 N           0.0903    0.6075    5.4780 N.1     1  UNL1        0.0000
     12 C           3.5969   -0.8723    5.8694 C.3     1  UNL1        0.0000
     13 H           2.6351   -0.9964    6.3769 H       1  UNL1        0.0000
     14 H           4.3930   -1.2349    6.5304 H       1  UNL1        0.0000
     15 C           3.5885   -1.6613    4.5624 C.3     1  UNL1        0.0000
     16 H           4.5457   -1.5265    4.0483 H       1  UNL1        0.0000
     17 H           3.4453   -2.7330    4.7592 H       1  UNL1        0.0000
     18 C           2.5443   -1.6980    2.3676 C.3     1  UNL1        0.0000
     19 H           2.4228   -2.7909    2.4186 H       1  UNL1        0.0000
     20 H           3.5139   -1.4816    1.9097 H       1  UNL1        0.0000
     21 C           1.4330   -1.1026    1.5080 C.3     1  UNL1        0.0000
     22 H           1.3634   -1.6846    0.5876 H       1  UNL1        0.0000
     23 H           0.4754   -1.1905    2.0308 H       1  UNL1        0.0000
     24 C           1.6809    0.3552    1.1258 C.3     1  UNL1        0.0000
     25 H           2.7066    0.4721    0.7644 H       1  UNL1        0.0000
     26 H           0.9985    0.6151    0.3035 H       1  UNL1        0.0000
     27 C           1.4898    2.6732    1.6843 C.3     1  UNL1        0.0000
     28 H           1.2247    3.3879    2.4601 H       1  UNL1        0.0000
     29 H           0.7817    2.7677    0.8537 H       1  UNL1        0.0000
     30 H           2.4904    2.9106    1.3258 H       1  UNL1        0.0000
     31 C           4.1937    1.0262    2.8550 C.1     1  UNL1        0.0000
     32 C           2.8269    2.7876    4.2877 C.1     1  UNL1        0.0000
     33 C           1.0680    0.8989    4.9407 C.1     1  UNL1        0.0000
@<TRIPOS>BOND
     1    26    24    1
     2    22    21    1
     3    25    24    1
     4    29    27    1
     5    24    21    1
     6    24     7    1
     7    30    27    1
     8    21    23    1
     9    21    18    1
    10    27     7    1
    11    27    28    1
    12    20    18    1
    13     9    31    3
    14     7     8    1
    15     7     1    1
    16    18    19    1
    17    18     5    1
    18    31     1    1
    19     5     1    1
    20     5     6    1
    21     5    15    1
    22     1    32    1
    23     1    33    1
    24     1     2    1
    25    16    15    1
    26    32    10    3
    27    15    17    1
    28    15    12    1
    29    33    11    3
    30     3     2    1
    31     2    12    1
    32     2     4    1
    33    12    13    1
    34    12    14    1
