@<TRIPOS>MOLECULE
CSD_code = QIGSAA | q = 0 | S = 0 | Stoichiometry = C6H15CoN6O4 | MND = 6
 32 33 0 0 0
SMALL
GASTEIGER

@<TRIPOS>ATOM
      1 CO          1.9221    6.4243    2.2681 Co.oh   1  UNL1        0.0000
      2 N           1.6758    6.0578    4.2998 N.4     1  UNL1        0.0000
      3 H           2.5163    6.3888    4.7801 H       1  UNL1        0.0000
      4 H           0.8915    6.5953    4.6699 H       1  UNL1        0.0000
      5 N           1.1596    4.3755    2.1484 N.4     1  UNL1        0.0000
      6 H           1.9980    3.8008    2.0332 H       1  UNL1        0.0000
      7 N           2.0658    6.4321    0.2275 N.4     1  UNL1        0.0000
      8 H           2.2013    7.4005   -0.0756 H       1  UNL1        0.0000
      9 H           2.9510    5.9402    0.0492 H       1  UNL1        0.0000
     10 N           3.6091    5.7246    2.4033 N.pl3   1  UNL1        0.0000
     11 N           2.5084    8.0680    2.4554 N.pl3   1  UNL1        0.0000
     12 N          -0.9850    7.2761    2.1290 N.1     1  UNL1        0.0000
     13 O           4.0134    4.9989    1.4862 O.2     1  UNL1        0.0000
     14 O           4.2450    5.8830    3.4388 O.2     1  UNL1        0.0000
     15 O           2.8760    8.6631    1.4635 O.2     1  UNL1        0.0000
     16 O           2.5350    8.4876    3.5880 O.2     1  UNL1        0.0000
     17 C           1.4761    4.6273    4.5486 C.3     1  UNL1        0.0000
     18 H           1.0345    4.4400    5.5334 H       1  UNL1        0.0000
     19 H           2.4493    4.1294    4.5086 H       1  UNL1        0.0000
     20 C           0.5688    4.0693    3.4538 C.3     1  UNL1        0.0000
     21 H          -0.4042    4.5662    3.5036 H       1  UNL1        0.0000
     22 H           0.4190    2.9898    3.5907 H       1  UNL1        0.0000
     23 C           0.2561    4.0353    1.0481 C.3     1  UNL1        0.0000
     24 H          -0.6518    4.6333    1.1585 H       1  UNL1        0.0000
     25 H          -0.0209    2.9723    1.1027 H       1  UNL1        0.0000
     26 C           0.8905    4.3188   -0.3108 C.3     1  UNL1        0.0000
     27 H           0.2617    3.8725   -1.0817 H       1  UNL1        0.0000
     28 H           1.8745    3.8457   -0.3620 H       1  UNL1        0.0000
     29 C           1.0316    5.8105   -0.6059 C.3     1  UNL1        0.0000
     30 H           1.2889    5.9354   -1.6653 H       1  UNL1        0.0000
     31 H           0.0808    6.3156   -0.4209 H       1  UNL1        0.0000
     32 C           0.1403    7.0396    2.1658 C.1     1  UNL1        0.0000
@<TRIPOS>BOND
     1    30    29    1
     2    27    26    1
     3    29    31    1
     4    29    26    1
     5    29     7    1
     6    28    26    1
     7    26    23    1
     8     8     7    1
     9     9     7    1
    10     7     1    1
    11    23    25    1
    12    23    24    1
    13    23     5    1
    14    15    11    2
    15    13    10    2
    16     6     5    1
    17    12    32    3
    18     5     1    1
    19     5    20    1
    20    32     1    1
    21     1    10    1
    22     1    11    1
    23     1     2    1
    24    10    14    2
    25    11    16    2
    26    20    21    1
    27    20    22    1
    28    20    17    1
    29     2    17    1
    30     2     4    1
    31     2     3    1
    32    19    17    1
    33    17    18    1
