@<TRIPOS>MOLECULE
CSD_code = QITSAP | q = 1 | S = 0 | Stoichiometry = C24H29CoN7O(1+) | MND = 6
 62 67 0 0 0
SMALL
GASTEIGER

@<TRIPOS>ATOM
      1 CO          1.1110    9.7800    8.7416 Co.oh   1  UNL1        0.0000
      2 N           0.0779   11.1208    7.9596 N.3     1  UNL1        0.0000
      3 N          -0.4407    9.5495   10.0730 N.pl3   1  UNL1        0.0000
      4 N           0.3105    8.1340    7.5339 N.pl3   1  UNL1        0.0000
      5 N           2.2018    8.2703    9.5464 N.4     1  UNL1        0.0000
      6 H           3.1435    8.4654    9.2021 H       1  UNL1        0.0000
      7 H           2.2608    8.2711   10.5645 H       1  UNL1        0.0000
      8 N           1.9446   11.0044    9.8336 N.2     1  UNL1        0.0000
      9 N           2.5135   11.9804    9.5051 N.2     1  UNL1        0.0000
     10 N           3.0742   12.9492    9.3491 N.2     1  UNL1        0.0000
     11 O           2.4645    9.9040    7.5177 O.3     1  UNL1        0.0000
     12 C           1.6595   11.8048    6.2842 C.ar    1  UNL1        0.0000
     13 C           2.6629   10.8762    6.6828 C.ar    1  UNL1        0.0000
     14 C           3.9436   10.9643    6.0946 C.ar    1  UNL1        0.0000
     15 H           4.6841   10.2452    6.4095 H       1  UNL1        0.0000
     16 C           4.2370   11.9252    5.1652 C.ar    1  UNL1        0.0000
     17 H           5.2253   11.9729    4.7348 H       1  UNL1        0.0000
     18 C           3.2658   12.8549    4.7913 C.ar    1  UNL1        0.0000
     19 H           3.5068   13.6313    4.0833 H       1  UNL1        0.0000
     20 C           2.0111   12.7891    5.3373 C.ar    1  UNL1        0.0000
     21 H           1.2949   13.5443    5.0598 H       1  UNL1        0.0000
     22 C           0.3498   11.7930    6.8759 C.3     1  UNL1        0.0000
     23 C          -0.7267   12.6064    6.2174 C.3     1  UNL1        0.0000
     24 H          -1.7030   12.1523    6.3633 H       1  UNL1        0.0000
     25 H          -0.5488   12.6723    5.1494 H       1  UNL1        0.0000
     26 H          -0.7472   13.6154    6.6298 H       1  UNL1        0.0000
     27 C          -1.1873   11.3437    8.6486 C.3     1  UNL1        0.0000
     28 H          -1.9879   10.7739    8.1572 H       1  UNL1        0.0000
     29 H          -1.4556   12.4034    8.6321 H       1  UNL1        0.0000
     30 C          -1.0405   10.8915   10.0979 C.3     1  UNL1        0.0000
     31 H          -0.3704   11.5667   10.6299 H       1  UNL1        0.0000
     32 H          -2.0135   10.8862   10.6026 H       1  UNL1        0.0000
     33 C          -0.1999    8.9644   11.3620 C.ar    1  UNL1        0.0000
     34 C          -0.7739    7.7334   11.6610 C.ar    1  UNL1        0.0000
     35 H          -1.4202    7.2447   10.9423 H       1  UNL1        0.0000
     36 C          -0.5380    7.1304   12.8845 C.ar    1  UNL1        0.0000
     37 H          -0.9927    6.1779   13.1074 H       1  UNL1        0.0000
     38 C           0.2681    7.7559   13.8200 C.ar    1  UNL1        0.0000
     39 H           0.4458    7.2907   14.7763 H       1  UNL1        0.0000
     40 C           0.8410    8.9824   13.5241 C.ar    1  UNL1        0.0000
     41 H           1.4690    9.4740   14.2502 H       1  UNL1        0.0000
     42 C           0.6131    9.5883   12.3009 C.ar    1  UNL1        0.0000
     43 H           1.0811   10.5297   12.0649 H       1  UNL1        0.0000
     44 C          -0.1370    8.5640    6.2465 C.ar    1  UNL1        0.0000
     45 C           0.7342    8.8143    5.1937 C.ar    1  UNL1        0.0000
     46 H           1.7902    8.6286    5.2939 H       1  UNL1        0.0000
     47 C           0.2512    9.3295    4.0036 C.ar    1  UNL1        0.0000
     48 H           0.9404    9.5265    3.1976 H       1  UNL1        0.0000
     49 C          -1.0984    9.5898    3.8423 C.ar    1  UNL1        0.0000
     50 H          -1.4681    9.9908    2.9122 H       1  UNL1        0.0000
     51 C          -1.9747    9.3179    4.8792 C.ar    1  UNL1        0.0000
     52 H          -3.0323    9.4969    4.7597 H       1  UNL1        0.0000
     53 C          -1.4972    8.8053    6.0707 C.ar    1  UNL1        0.0000
     54 H          -2.1923    8.5830    6.8715 H       1  UNL1        0.0000
     55 C           1.3700    7.1188    7.5888 C.3     1  UNL1        0.0000
     56 H           2.2291    7.4757    7.0214 H       1  UNL1        0.0000
     57 H           1.0330    6.1659    7.1645 H       1  UNL1        0.0000
     58 C           1.7787    6.9553    9.0501 C.3     1  UNL1        0.0000
     59 H           0.9280    6.6117    9.6473 H       1  UNL1        0.0000
     60 H           2.5764    6.2101    9.1342 H       1  UNL1        0.0000
     61 H          -0.5007    7.7445    8.0162 H       1  UNL1        0.0000
     62 H          -1.1271    8.9470    9.6131 H       1  UNL1        0.0000
@<TRIPOS>BOND
     1    50    49    1
     2    48    47    1
     3    49    47   ar
     4    49    51   ar
     5    47    45   ar
     6    19    18    1
     7    17    16    1
     8    52    51    1
     9    18    16   ar
    10    18    20   ar
    11    51    53   ar
    12    21    20    1
    13    25    23    1
    14    16    14   ar
    15    45    46    1
    16    45    44   ar
    17    20    12   ar
    18    53    44   ar
    19    53    54    1
    20    14    15    1
    21    14    13   ar
    22    23    24    1
    23    23    26    1
    24    23    22    1
    25    44     4    1
    26    12    13   ar
    27    12    22    1
    28    13    11    1
    29    22     2    1
    30    56    55    1
    31    57    55    1
    32    11     1    1
    33     4    55    1
    34     4    61    1
    35     4     1    1
    36    55    58    1
    37     2    27    1
    38     2     1    1
    39    28    27    1
    40    29    27    1
    41    27    30    1
    42     1     5    1
    43     1     8    1
    44     1     3    1
    45    58    60    1
    46    58     5    1
    47    58    59    1
    48     6     5    1
    49    10     9    2
    50     9     8    2
    51     5     7    1
    52    62     3    1
    53     3    30    1
    54     3    33    1
    55    30    32    1
    56    30    31    1
    57    35    34    1
    58    33    34   ar
    59    33    42   ar
    60    34    36   ar
    61    43    42    1
    62    42    40   ar
    63    36    37    1
    64    36    38   ar
    65    40    38   ar
    66    40    41    1
    67    38    39    1
