@<TRIPOS>MOLECULE
CSD_code = RADNIT | q = 1 | S = 0 | Stoichiometry = C20H24CoN6O2(1+) | MND = 6
 53 58 0 0 0
SMALL
GASTEIGER

@<TRIPOS>ATOM
      1 CO          0.4102    2.5902    3.6222 Co.oh   1  UNL1        0.0000
      2 O          -0.6298    4.1926    5.5338 O.3     1  UNL1        0.0000
      3 O          -1.7973    2.2293    2.1061 O.3     1  UNL1        0.0000
      4 N           1.1920    1.1532    2.4981 N.pl3   1  UNL1        0.0000
      5 N           0.5361    3.5792    2.0810 N.pl3   1  UNL1        0.0000
      6 N          -0.3231    4.1143    4.3289 N.3     1  UNL1        0.0000
      7 N           2.1579    3.0594    4.4381 N.pl3   1  UNL1        0.0000
      8 N           0.1725    1.6450    5.1776 N.pl3   1  UNL1        0.0000
      9 N          -1.2723    1.9907    3.2104 N.3     1  UNL1        0.0000
     10 C           1.5136   -0.0924    2.8463 C.3     1  UNL1        0.0000
     11 C           1.9801   -1.0294    1.9450 C.2     1  UNL1        0.0000
     12 C           2.1181   -0.6618    0.6140 C.2     1  UNL1        0.0000
     13 C           1.7852    0.6297    0.2489 C.2     1  UNL1        0.0000
     14 C           1.3235    1.5141    1.2162 C.2     1  UNL1        0.0000
     15 C           0.9262    2.9205    0.8671 C.3     1  UNL1        0.0000
     16 C          -0.2411    5.6190    0.9579 C.3     1  UNL1        0.0000
     17 C          -0.0328    4.7415    2.1414 C.2     1  UNL1        0.0000
     18 C          -0.4712    5.0874    3.4569 C.2     1  UNL1        0.0000
     19 C          -1.0656    6.4035    3.8454 C.3     1  UNL1        0.0000
     20 C           3.1383    3.8060    3.9308 C.3     1  UNL1        0.0000
     21 C           4.2814    4.1281    4.6363 C.2     1  UNL1        0.0000
     22 C           4.4170    3.6579    5.9347 C.2     1  UNL1        0.0000
     23 C           3.4017    2.8828    6.4645 C.2     1  UNL1        0.0000
     24 C           2.2831    2.6017    5.6894 C.2     1  UNL1        0.0000
     25 C           1.1423    1.7842    6.2261 C.3     1  UNL1        0.0000
     26 C          -1.4975    0.5478    6.6022 C.3     1  UNL1        0.0000
     27 C          -1.0180    1.1581    5.3326 C.2     1  UNL1        0.0000
     28 C          -1.8382    1.2923    4.1701 C.2     1  UNL1        0.0000
     29 C          -3.2164    0.7309    4.0219 C.3     1  UNL1        0.0000
     30 H           1.3878   -0.3479    3.8888 H       1  UNL1        0.0000
     31 H           2.2245   -2.0251    2.2770 H       1  UNL1        0.0000
     32 H           2.4733   -1.3674   -0.1203 H       1  UNL1        0.0000
     33 H           1.8717    0.9568   -0.7751 H       1  UNL1        0.0000
     34 H           1.7593    3.4382    0.3711 H       1  UNL1        0.0000
     35 H           0.0828    2.8894    0.1633 H       1  UNL1        0.0000
     36 H           2.9980    4.1617    2.9200 H       1  UNL1        0.0000
     37 H           5.0446    4.7376    4.1810 H       1  UNL1        0.0000
     38 H           5.2919    3.8941    6.5197 H       1  UNL1        0.0000
     39 H           3.4627    2.5009    7.4713 H       1  UNL1        0.0000
     40 H           1.5065    0.8086    6.5776 H       1  UNL1        0.0000
     41 H           0.7008    2.3078    7.0856 H       1  UNL1        0.0000
     42 H          -0.7479   -0.1208    7.0223 H       1  UNL1        0.0000
     43 H          -1.6766    1.3441    7.3261 H       1  UNL1        0.0000
     44 H          -2.4232    0.0029    6.4535 H       1  UNL1        0.0000
     45 H          -3.5813    0.9667    3.0248 H       1  UNL1        0.0000
     46 H          -3.2158   -0.3501    4.1513 H       1  UNL1        0.0000
     47 H          -3.8915    1.1706    4.7541 H       1  UNL1        0.0000
     48 H          -1.2848    6.3841    4.9104 H       1  UNL1        0.0000
     49 H          -0.3761    7.2210    3.6420 H       1  UNL1        0.0000
     50 H          -1.9911    6.5831    3.3011 H       1  UNL1        0.0000
     51 H           0.6426    5.6369    0.3227 H       1  UNL1        0.0000
     52 H          -1.0672    5.2188    0.3685 H       1  UNL1        0.0000
     53 H          -0.4908    6.6313    1.2564 H       1  UNL1        0.0000
@<TRIPOS>BOND
     1    33    13    1
     2    32    12    1
     3    35    15    1
     4    13    12    1
     5    13    14    2
     6    51    16    1
     7    52    16    1
     8    34    15    1
     9    12    11    2
    10    15    14    1
    11    15     5    1
    12    16    53    1
    13    16    17    1
    14    14     4    1
    15    11    31    1
    16    11    10    1
    17     5    17    1
    18     5     1    1
    19     3     9    1
    20    17    18    2
    21     4    10    1
    22     4     1    1
    23    10    30    1
    24    36    20    1
    25    45    29    1
    26     9     1    1
    27     9    28    1
    28    50    19    1
    29    18    19    1
    30    18     6    1
    31     1     6    1
    32     1     7    1
    33     1     8    1
    34    49    19    1
    35    19    48    1
    36    20     7    1
    37    20    21    1
    38    29    46    1
    39    29    28    1
    40    29    47    1
    41    28    27    2
    42    37    21    1
    43     6     2    1
    44     7    24    1
    45    21    22    2
    46     8    27    1
    47     8    25    1
    48    27    26    1
    49    24    25    1
    50    24    23    2
    51    22    23    1
    52    22    38    1
    53    25    40    1
    54    25    41    1
    55    44    26    1
    56    23    39    1
    57    26    42    1
    58    26    43    1
