@<TRIPOS>MOLECULE
CSD_code = REWGEI | q = 0 | S = 0 | Stoichiometry = C21H35B10CoO6S2 | MND = 9
 75 79 0 0 0
SMALL
GASTEIGER

@<TRIPOS>ATOM
      1 CO          0.0767   18.5361    8.7385 Co.oh   1  UNL1        0.0000
      2 S          -0.3262   17.1137   11.9429 S.3     2  UNL2        0.0000
      3 S          -1.8324   17.2744    8.9985 S.3     3  UNL3        0.0000
      4 O           1.6558   19.0542    5.5802 O.2     1  UNL1        0.0000
      5 O          -0.1859   18.0294    4.8063 O.3     1  UNL1        0.0000
      6 O           4.0098   15.7880    8.5662 O.2     1  UNL1        0.0000
      7 O           4.0734   15.3481   10.7672 O.3     1  UNL1        0.0000
      8 O          -1.5684   18.4482   14.7797 O.2     2  UNL2        0.0000
      9 O          -2.0243   19.7341   13.0013 O.3     2  UNL2        0.0000
     10 C          -0.5343   15.5918   10.9802 C.3     1  UNL1        0.0000
     11 C          -1.1973   15.6736    9.4865 C.3     1  UNL1        0.0000
     12 C           1.3548   16.8280    9.1935 C.3     1  UNL1        0.0000
     13 C           1.4982   17.4014    7.9142 C.3     1  UNL1        0.0000
     14 H           2.4264   17.9066    7.6555 H       1  UNL1        0.0000
     15 C           0.4348   17.5492    6.9909 C.3     1  UNL1        0.0000
     16 H          -0.3283   16.7950    6.8433 H       1  UNL1        0.0000
     17 C          -1.9925   17.4185   12.6476 C.3     2  UNL2        0.0000
     18 H          -2.6703   17.6805   11.8364 H       2  UNL2        0.0000
     19 H          -2.3083   16.5244   13.1823 H       2  UNL2        0.0000
     20 C           0.7241   18.3009    5.7539 C.2     1  UNL1        0.0000
     21 C          -0.0094   18.6805    3.5502 C.3     1  UNL1        0.0000
     22 H           1.0243   18.5333    3.2172 H       1  UNL1        0.0000
     23 H          -0.1713   19.7569    3.6841 H       1  UNL1        0.0000
     24 C          -1.0004   18.0950    2.5622 C.3     1  UNL1        0.0000
     25 H          -0.8234   17.0297    2.4429 H       1  UNL1        0.0000
     26 H          -0.8896   18.5849    1.5992 H       1  UNL1        0.0000
     27 H          -2.0154   18.2395    2.9221 H       1  UNL1        0.0000
     28 C           2.5846   17.0269   10.0709 C.3     1  UNL1        0.0000
     29 H           3.0371   18.0045    9.8942 H       1  UNL1        0.0000
     30 H           2.3558   16.9260   11.1301 H       1  UNL1        0.0000
     31 C           3.6309   15.9860    9.6892 C.2     1  UNL1        0.0000
     32 C           5.0240   14.2909   10.5947 C.3     1  UNL1        0.0000
     33 H           5.9410   14.6016   11.1046 H       1  UNL1        0.0000
     34 H           5.2234   14.1736    9.5253 H       1  UNL1        0.0000
     35 C           4.4753   13.0075   11.1972 C.3     1  UNL1        0.0000
     36 H           4.2530   13.1539   12.2504 H       1  UNL1        0.0000
     37 H           5.2137   12.2177   11.0963 H       1  UNL1        0.0000
     38 H           3.5616   12.7123   10.6885 H       1  UNL1        0.0000
     39 C          -1.8396   18.5652   13.6153 C.2     2  UNL2        0.0000
     40 C          -1.8591   20.9154   13.7914 C.3     2  UNL2        0.0000
     41 H          -2.7287   21.0150   14.4502 H       2  UNL2        0.0000
     42 H          -0.9681   20.7963   14.4171 H       2  UNL2        0.0000
     43 C          -1.7344   22.1066   12.8603 C.3     2  UNL2        0.0000
     44 H          -0.8654   21.9959   12.2168 H       2  UNL2        0.0000
     45 H          -1.6290   23.0144   13.4468 H       2  UNL2        0.0000
     46 H          -2.6202   22.1892   12.2362 H       2  UNL2        0.0000
     47 C          -0.9443   20.3430    8.5890 C.2     4  UNL4        0.0000
     48 H          -1.8941   20.5486    8.1207 H       4  UNL4        0.0000
     49 C          -0.7618   19.9748    9.9606 C.3     4  UNL4        0.0000
     50 H          -1.5495   19.8661   10.6882 H       4  UNL4        0.0000
     51 C           0.6196   19.9554   10.2245 C.2     4  UNL4        0.0000
     52 H           1.0800   19.8004   11.1867 H       4  UNL4        0.0000
     53 C           1.2909   20.2986    9.0228 C.2     4  UNL4        0.0000
     54 H           2.3530   20.4460    8.9121 H       4  UNL4        0.0000
     55 C           0.3266   20.5836    8.0352 C.2     4  UNL4        0.0000
     56 H           0.5380   20.9463    7.0441 H       4  UNL4        0.0000
     57 B           0.4897   15.5290    9.5568 B       1  UNL1        0.0000
     58 B           0.7641   14.4984   11.0069 B       1  UNL1        0.0000
     59 H           1.6522   14.7441   11.7291 H       1  UNL1        0.0000
     60 B          -0.7975   14.0764   11.7253 B       1  UNL1        0.0000
     61 H          -0.9071   14.0750   12.8935 H       1  UNL1        0.0000
     62 B          -2.0514   14.8543   10.7531 B       1  UNL1        0.0000
     63 H          -3.0053   15.3880   11.1698 H       1  UNL1        0.0000
     64 B          -1.7233   13.1416   10.5386 B       1  UNL1        0.0000
     65 H          -2.5089   12.3326   10.8635 H       1  UNL1        0.0000
     66 B          -1.9895   14.2012    9.1220 B       1  UNL1        0.0000
     67 H          -2.9575   14.2589    8.4640 H       1  UNL1        0.0000
     68 B          -0.4282   14.5497    8.4028 B       1  UNL1        0.0000
     69 H          -0.3772   14.8040    7.2622 H       1  UNL1        0.0000
     70 B           0.8586   13.8092    9.3746 B       1  UNL1        0.0000
     71 H           1.8703   13.4636    8.8901 H       1  UNL1        0.0000
     72 B           0.0498   12.9070   10.6978 B       1  UNL1        0.0000
     73 H           0.5140   11.9267   11.1482 H       1  UNL1        0.0000
     74 B          -0.7001   12.9573    9.0892 B       1  UNL1        0.0000
     75 H          -0.7782   12.0141    8.3949 H       1  UNL1        0.0000
@<TRIPOS>BOND
     1    26    24    1
     2    25    24    1
     3    24    27    1
     4    24    21    1
     5    22    21    1
     6    21    23    1
     7    21     5    1
     8     5    20    1
     9     4    20    2
    10    20    15    1
    11    16    15    1
    12    15    13    1
    13    56    55    1
    14    69    68    1
    15    14    13    1
    16    13     1    1
    17    13    12    1
    18    55    47    2
    19    55    53    1
    20    48    47    1
    21    75    74    1
    22    68    74    1
    23    68    66    1
    24    68    57    1
    25    67    66    1
    26     6    31    2
    27    47    49    1
    28    71    70    1
    29    54    53    1
    30    53    51    2
    31    74    64    1
    32    74    72    1
    33    66    11    1
    34    66    64    1
    35    12    57    1
    36    12    28    1
    37    70    57    1
    38    70    72    1
    39    11    57    1
    40    11    62    1
    41    11    10    1
    42    34    32    1
    43    31    28    1
    44    31     7    1
    45    29    28    1
    46    49    51    1
    47    49    50    1
    48    28    30    1
    49    51    52    1
    50    64    62    1
    51    64    65    1
    52    32     7    1
    53    32    33    1
    54    32    35    1
    55    38    35    1
    56    72    58    1
    57    72    73    1
    58    62    10    1
    59    62    63    1
    60    10    58    1
    61    10    60    1
    62    58    60    1
    63    58    59    1
    64    37    35    1
    65    35    36    1
    66    60    61    1
    67    18    17    1
    68     2    17    1
    69    44    43    1
    70    46    43    1
    71    17    19    1
    72    17    39    1
    73    43    45    1
    74    43    40    1
    75     9    39    1
    76     9    40    1
    77    39     8    2
    78    40    42    1
    79    40    41    1
