@<TRIPOS>MOLECULE
CSD_code = REWGIM | q = 0 | S = 0 | Stoichiometry = C24H35B10CoO4S2 | MND = 9
 76 80 0 0 0
SMALL
GASTEIGER

@<TRIPOS>ATOM
      1 CO         11.3409    4.4409    9.5603 Co.oh   1  UNL1        0.0000
      2 S          11.1276    1.5978   11.7266 S.3     2  UNL2        0.0000
      3 S          13.1937    3.0758    9.6068 S.3     3  UNL3        0.0000
      4 O          11.4547    7.9804    8.9114 O.2     1  UNL1        0.0000
      5 O          13.4966    7.3980    8.1804 O.3     1  UNL1        0.0000
      6 O          10.9388   -0.0718    8.9506 O.2     2  UNL2        0.0000
      7 O          13.0443   -0.5251    9.5785 O.3     2  UNL2        0.0000
      8 C          12.6877    2.2731   12.3581 C.3     1  UNL1        0.0000
      9 C          13.6809    3.0781   11.3299 C.3     1  UNL1        0.0000
     10 C          11.5083    4.8316   11.7483 C.3     1  UNL1        0.0000
     11 C          11.6001    5.9271   10.8708 C.3     1  UNL1        0.0000
     12 H          10.8041    6.6714   10.8627 H       1  UNL1        0.0000
     13 C          12.5488    6.0545    9.8229 C.3     1  UNL1        0.0000
     14 H          13.5762    5.7225    9.9058 H       1  UNL1        0.0000
     15 C          10.2343    4.8210   12.5794 C.3     1  UNL1        0.0000
     16 H           9.4186    5.2925   12.0223 H       1  UNL1        0.0000
     17 H           9.9379    3.7920   12.7909 H       1  UNL1        0.0000
     18 C          11.4745   -0.1478   11.2866 C.3     2  UNL2        0.0000
     19 H          12.2910   -0.5258   11.8951 H       2  UNL2        0.0000
     20 H          10.5444   -0.6717   11.5077 H       2  UNL2        0.0000
     21 C          12.4059    7.2302    8.9452 C.2     1  UNL1        0.0000
     22 C          13.4788    8.5092    7.2881 C.3     1  UNL1        0.0000
     23 H          12.6096    8.4194    6.6256 H       1  UNL1        0.0000
     24 H          13.3626    9.4304    7.8711 H       1  UNL1        0.0000
     25 C          14.7749    8.5124    6.5001 C.3     1  UNL1        0.0000
     26 H          15.6215    8.6019    7.1751 H       1  UNL1        0.0000
     27 H          14.7803    9.3493    5.8078 H       1  UNL1        0.0000
     28 H          14.8739    7.5857    5.9416 H       1  UNL1        0.0000
     29 C          11.7667   -0.2466    9.8084 C.2     2  UNL2        0.0000
     30 C          13.4802   -0.5383    8.2163 C.3     2  UNL2        0.0000
     31 H          12.9993    0.2914    7.6891 H       2  UNL2        0.0000
     32 H          14.5567   -0.3671    8.2694 H       2  UNL2        0.0000
     33 C          13.1596   -1.8611    7.5381 C.3     2  UNL2        0.0000
     34 H          13.6003   -2.6860    8.0930 H       2  UNL2        0.0000
     35 H          13.5619   -1.8569    6.5293 H       2  UNL2        0.0000
     36 H          12.0828   -2.0032    7.4867 H       2  UNL2        0.0000
     37 C          10.3746    5.5618   13.8915 C.ar    1  UNL1        0.0000
     38 C           9.7243    5.0818   15.0211 C.ar    1  UNL1        0.0000
     39 H           9.1508    4.1680   14.9593 H       1  UNL1        0.0000
     40 C           9.7990    5.7614   16.2234 C.ar    1  UNL1        0.0000
     41 H           9.2880    5.3730   17.0920 H       1  UNL1        0.0000
     42 C          10.5264    6.9352   16.3127 C.ar    1  UNL1        0.0000
     43 H          10.5877    7.4665   17.2506 H       1  UNL1        0.0000
     44 C          11.1727    7.4240   15.1912 C.ar    1  UNL1        0.0000
     45 H          11.7401    8.3408   15.2507 H       1  UNL1        0.0000
     46 C          11.0969    6.7433   13.9889 C.ar    1  UNL1        0.0000
     47 H          11.6101    7.1353   13.1244 H       1  UNL1        0.0000
     48 C          10.2502    2.9789    8.5736 C.2     4  UNL4        0.0000
     49 H          10.3803    1.9092    8.5698 H       4  UNL4        0.0000
     50 B          12.7361    4.0211   12.3793 B       1  UNL1        0.0000
     51 B          12.6449    3.0359   13.8793 B       1  UNL1        0.0000
     52 H          11.6363    2.9920   14.4727 H       1  UNL1        0.0000
     53 B          13.5425    1.5321   13.6360 B       1  UNL1        0.0000
     54 H          13.1032    0.5257   14.0544 H       1  UNL1        0.0000
     55 B          14.1905    1.5628   11.9888 B       1  UNL1        0.0000
     56 H          14.2130    0.6558   11.2544 H       1  UNL1        0.0000
     57 B          15.2439    1.9338   13.3418 B       1  UNL1        0.0000
     58 H          16.1133    1.2048   13.6438 H       1  UNL1        0.0000
     59 B          14.2814    2.8636   14.5380 B       1  UNL1        0.0000
     60 H          14.4708    2.7817   15.6937 H       1  UNL1        0.0000
     61 B          13.7690    4.4012   13.7752 B       1  UNL1        0.0000
     62 H          13.6095    5.3886   14.3881 H       1  UNL1        0.0000
     63 B          14.4490    4.4102   12.1385 B       1  UNL1        0.0000
     64 H          14.7432    5.3582   11.5184 H       1  UNL1        0.0000
     65 B          15.3072    2.9097   11.8434 B       1  UNL1        0.0000
     66 H          16.1313    2.8621   11.0111 H       1  UNL1        0.0000
     67 B          15.3936    3.7074   13.4424 B       1  UNL1        0.0000
     68 H          16.3802    4.2261   13.8113 H       1  UNL1        0.0000
     69 C           9.3556    3.7008    9.3803 C.3     4  UNL4        0.0000
     70 H           8.7032    3.2845   10.1301 H       4  UNL4        0.0000
     71 C           9.3721    5.0517    8.9430 C.2     4  UNL4        0.0000
     72 H           8.7354    5.8421    9.3068 H       4  UNL4        0.0000
     73 C          10.2370    5.1533    7.8356 C.2     4  UNL4        0.0000
     74 H          10.3855    6.0351    7.2361 H       4  UNL4        0.0000
     75 C          10.8239    3.8894    7.6296 C.2     4  UNL4        0.0000
     76 H          11.4665    3.6128    6.8081 H       4  UNL4        0.0000
@<TRIPOS>BOND
     1    27    25    1
     2    28    25    1
     3    25    26    1
     4    25    22    1
     5    35    33    1
     6    23    22    1
     7    76    75    1
     8    74    73    1
     9    22    24    1
    10    22     5    1
    11    36    33    1
    12    33    34    1
    13    33    30    1
    14    75    73    1
    15    75    48    2
    16    31    30    1
    17    73    71    2
    18     5    21    1
    19    30    32    1
    20    30     7    1
    21    49    48    1
    22    48    69    1
    23     4    21    2
    24    71    72    1
    25    71    69    1
    26    21    13    1
    27     6    29    2
    28    69    70    1
    29     1    11    1
    30     7    29    1
    31    29    18    1
    32    13    14    1
    33    13    11    1
    34    12    11    1
    35    11    10    1
    36    66    65    1
    37    56    55    1
    38    18    20    1
    39    18     2    1
    40    18    19    1
    41     9    65    1
    42     9    55    1
    43     9     8    1
    44     9    50    1
    45    64    63    1
    46    10    50    1
    47    10    15    1
    48    65    63    1
    49    55     8    1
    50    55    57    1
    51    16    15    1
    52    63    67    1
    53    63    61    1
    54     8    53    1
    55     8    51    1
    56    50    61    1
    57    15    17    1
    58    15    37    1
    59    47    46    1
    60    57    67    1
    61    57    58    1
    62    67    68    1
    63    67    59    1
    64    53    51    1
    65    53    54    1
    66    53    59    1
    67    61    51    1
    68    61    62    1
    69    51    52    1
    70    37    46   ar
    71    37    38   ar
    72    46    44   ar
    73    59    60    1
    74    39    38    1
    75    38    40   ar
    76    44    45    1
    77    44    42   ar
    78    40    42   ar
    79    40    41    1
    80    42    43    1
