@<TRIPOS>MOLECULE
CSD_code = REXZOL | q = 1 | S = 0 | Stoichiometry = C18H22CoN10O4(1+) | MND = 6
 55 60 0 0 0
SMALL
GASTEIGER

@<TRIPOS>ATOM
      1 CO         -0.8447    2.4585    3.5200 Co.oh   1  UNL1        0.0000
      2 O          -1.1082    0.7363    1.4860 O.3     1  UNL1        0.0000
      3 N          -1.6656    1.1566    2.5123 N.3     1  UNL1        0.0000
      4 C          -2.8267    0.7525    2.9690 C.2     1  UNL1        0.0000
      5 C          -3.2342    1.3884    4.1828 C.2     1  UNL1        0.0000
      6 N          -2.4360    2.3420    4.5852 N.pl3   1  UNL1        0.0000
      7 N          -2.6850    2.9767    5.7584 N.am    1  UNL1        0.0000
      8 H          -3.4276    2.5976    6.3439 H       1  UNL1        0.0000
      9 C          -1.9185    3.9079    6.4188 C.2     1  UNL1        0.0000
     10 C          -0.6842    4.4009    5.7826 C.3     1  UNL1        0.0000
     11 C           0.0979    5.4433    6.2586 C.2     1  UNL1        0.0000
     12 C           1.1823    5.5888    5.4240 C.2     1  UNL1        0.0000
     13 N           1.0175    4.6322    4.4825 N.pl3   1  UNL1        0.0000
     14 H           1.6231    4.4387    3.6960 H       1  UNL1        0.0000
     15 N          -0.0982    3.9082    4.6810 N.3     1  UNL1        0.0000
     16 C          -3.6082   -0.3051    2.2575 C.3     1  UNL1        0.0000
     17 H          -3.0911   -0.5563    1.3341 H       1  UNL1        0.0000
     18 H          -4.6110    0.0427    2.0168 H       1  UNL1        0.0000
     19 H          -3.6849   -1.2037    2.8677 H       1  UNL1        0.0000
     20 C          -4.4524    0.9660    4.9334 C.3     1  UNL1        0.0000
     21 H          -4.1598    0.5098    5.8809 H       1  UNL1        0.0000
     22 H          -5.0136    0.2313    4.3671 H       1  UNL1        0.0000
     23 H          -5.1063    1.8125    5.1445 H       1  UNL1        0.0000
     24 O          -2.3013    4.3193    7.4876 O.2     1  UNL1        0.0000
     25 C           2.3245    6.5231    5.4484 C.3     1  UNL1        0.0000
     26 H           2.9598    6.3861    4.5772 H       1  UNL1        0.0000
     27 H           2.9164    6.3654    6.3488 H       1  UNL1        0.0000
     28 H           1.9667    7.5506    5.4721 H       1  UNL1        0.0000
     29 O          -0.5808    0.7362    5.5541 O.3     1  UNL1        0.0000
     30 N          -0.0235    1.1567    4.5278 N.3     1  UNL1        0.0000
     31 C           1.1376    0.7529    4.0711 C.2     1  UNL1        0.0000
     32 C           1.5450    1.3885    2.8572 C.2     1  UNL1        0.0000
     33 N           0.7468    2.3422    2.4549 N.pl3   1  UNL1        0.0000
     34 N           0.9957    2.9769    1.2817 N.am    1  UNL1        0.0000
     35 H           1.7386    2.5982    0.6963 H       1  UNL1        0.0000
     36 C           0.2289    3.9080    0.6213 C.2     1  UNL1        0.0000
     37 C          -1.0054    4.4008    1.2574 C.3     1  UNL1        0.0000
     38 C          -1.7874    5.4433    0.7816 C.2     1  UNL1        0.0000
     39 C          -2.8717    5.5889    1.6163 C.2     1  UNL1        0.0000
     40 N          -2.7071    4.6322    2.5576 N.pl3   1  UNL1        0.0000
     41 H          -3.3127    4.4386    3.3441 H       1  UNL1        0.0000
     42 N          -1.5915    3.9081    2.3589 N.3     1  UNL1        0.0000
     43 C           1.9194   -0.3044    4.7830 C.3     1  UNL1        0.0000
     44 H           1.4036   -0.5535    5.7077 H       1  UNL1        0.0000
     45 H           2.9230    0.0428    5.0213 H       1  UNL1        0.0000
     46 H           1.9939   -1.2041    4.1741 H       1  UNL1        0.0000
     47 C           2.7630    0.9660    2.1062 C.3     1  UNL1        0.0000
     48 H           2.4702    0.5117    1.1580 H       1  UNL1        0.0000
     49 H           3.3232    0.2299    2.6716 H       1  UNL1        0.0000
     50 H           3.4178    1.8122    1.8966 H       1  UNL1        0.0000
     51 O           0.6116    4.3194   -0.4476 O.2     1  UNL1        0.0000
     52 C          -4.0138    6.5234    1.5921 C.3     1  UNL1        0.0000
     53 H          -4.6497    6.3856    2.4626 H       1  UNL1        0.0000
     54 H          -4.6050    6.3670    0.6910 H       1  UNL1        0.0000
     55 H          -3.6557    7.5510    1.5699 H       1  UNL1        0.0000
@<TRIPOS>BOND
     1    51    36    2
     2    36    37    1
     3    36    34   am
     4    54    52    1
     5    35    34    1
     6    38    37    1
     7    38    39    2
     8    48    47    1
     9    37    42    1
    10    34    33    1
    11    17    16    1
    12     2     3    1
    13    55    52    1
    14    52    39    1
    15    52    53    1
    16    39    40    1
    17    50    47    1
    18    18    16    1
    19    47    49    1
    20    47    32    1
    21    16    19    1
    22    16     4    1
    23    42    40    1
    24    42     1    1
    25    33    32    1
    26    33     1    1
    27     3     4    1
    28     3     1    1
    29    40    41    1
    30    32    31    2
    31     4     5    2
    32     1    30    1
    33     1     6    1
    34     1    15    1
    35    14    13    1
    36    31    30    1
    37    31    43    1
    38    46    43    1
    39     5     6    1
    40     5    20    1
    41    22    20    1
    42    13    15    1
    43    13    12    1
    44    30    29    1
    45    26    25    1
    46     6     7    1
    47    15    10    1
    48    43    45    1
    49    43    44    1
    50    20    23    1
    51    20    21    1
    52    12    25    1
    53    12    11    2
    54    25    28    1
    55    25    27    1
    56     7     8    1
    57     7     9   am
    58    10    11    1
    59    10     9    1
    60     9    24    2
