@<TRIPOS>MOLECULE
CSD_code = RUSZUA | q = 0 | S = 0 | Stoichiometry = C22H17CoN6O5 | MND = 6
 51 57 0 0 0
SMALL
GASTEIGER

@<TRIPOS>ATOM
      1 CO          0.4452    0.6846   17.7358 Co.oh   1  UNL1        0.0000
      2 O           0.1220   -1.3176   16.0012 O.3     1  UNL1        0.0000
      3 O           1.2626    1.6286   19.2314 O.3     1  UNL1        0.0000
      4 O           3.3403    1.7835   20.1729 O.3     1  UNL1        0.0000
      5 O          -1.6547    1.0931   19.1580 O.2     1  UNL1        0.0000
      6 O          -1.1656   -0.9721   18.8336 O.2     1  UNL1        0.0000
      7 N          -0.4317    2.1971   17.0377 N.pl3   1  UNL1        0.0000
      8 N          -1.2868    1.1168   13.0491 N.ar    1  UNL1        0.0000
      9 N          -0.1683   -0.1212   16.2139 N.3     1  UNL1        0.0000
     10 N           1.5585   -0.8171   18.4766 N.pl3   1  UNL1        0.0000
     11 N           2.2399    1.2981   16.8021 N.pl3   1  UNL1        0.0000
     12 N          -0.9698    0.2153   18.6861 N.pl3   1  UNL1        0.0000
     13 C          -0.5531    3.3724   17.6390 C.3     1  UNL1        0.0000
     14 C          -1.1972    4.4385   17.0409 C.2     1  UNL1        0.0000
     15 C          -1.7394    4.2639   15.7726 C.2     1  UNL1        0.0000
     16 C          -1.6243    3.0383   15.1510 C.2     1  UNL1        0.0000
     17 C          -0.9598    2.0018   15.8117 C.2     1  UNL1        0.0000
     18 C          -0.7838    0.6534   15.3326 C.3     1  UNL1        0.0000
     19 C          -1.2154    0.1919   14.0105 C.ar    1  UNL1        0.0000
     20 C          -1.6609    0.7505   11.8390 C.ar    1  UNL1        0.0000
     21 C          -1.9890   -0.5517   11.4967 C.ar    1  UNL1        0.0000
     22 C          -1.9250   -1.5160   12.4915 C.ar    1  UNL1        0.0000
     23 C          -1.5326   -1.1480   13.7649 C.ar    1  UNL1        0.0000
     24 C           1.4118   -2.1339   18.4221 C.3     1  UNL1        0.0000
     25 C           2.2772   -2.9921   19.0799 C.2     1  UNL1        0.0000
     26 C           3.3247   -2.4639   19.8183 C.2     1  UNL1        0.0000
     27 C           3.4794   -1.0882   19.8669 C.2     1  UNL1        0.0000
     28 C           2.5659   -0.3081   19.1833 C.2     1  UNL1        0.0000
     29 C           2.5449    1.2247   19.1597 C.3     1  UNL1        0.0000
     30 C           3.1172    1.5363   17.7739 C.3     1  UNL1        0.0000
     31 C           4.3998    2.0009   17.5351 C.2     1  UNL1        0.0000
     32 C           4.7751    2.2337   16.2238 C.2     1  UNL1        0.0000
     33 C           3.8604    1.9849   15.2099 C.2     1  UNL1        0.0000
     34 C           2.6017    1.5172   15.5444 C.2     1  UNL1        0.0000
     35 H          -0.1241    3.4370   18.6279 H       1  UNL1        0.0000
     36 H          -1.2791    5.3798   17.5592 H       1  UNL1        0.0000
     37 H          -2.2529    5.0763   15.2805 H       1  UNL1        0.0000
     38 H          -2.0233    2.8541   14.1678 H       1  UNL1        0.0000
     39 H          -1.6958    1.5483   11.1070 H       1  UNL1        0.0000
     40 H          -2.2863   -0.8003   10.4900 H       1  UNL1        0.0000
     41 H          -2.1805   -2.5439   12.2781 H       1  UNL1        0.0000
     42 H          -1.4722   -1.8748   14.5573 H       1  UNL1        0.0000
     43 H           0.5847   -2.4970   17.8302 H       1  UNL1        0.0000
     44 H           2.1236   -4.0574   19.0168 H       1  UNL1        0.0000
     45 H           4.0074   -3.1101   20.3500 H       1  UNL1        0.0000
     46 H           4.2655   -0.6100   20.4287 H       1  UNL1        0.0000
     47 H           5.0583    2.1797   18.3692 H       1  UNL1        0.0000
     48 H           5.7632    2.6036   15.9936 H       1  UNL1        0.0000
     49 H           4.1160    2.1520   14.1757 H       1  UNL1        0.0000
     50 H           1.8609    1.3133   14.7826 H       1  UNL1        0.0000
     51 H           2.7214    2.2056   20.7823 H       1  UNL1        0.0000
@<TRIPOS>BOND
     1    40    21    1
     2    39    20    1
     3    21    20   ar
     4    21    22   ar
     5    20     8   ar
     6    41    22    1
     7    22    23   ar
     8     8    19   ar
     9    23    19   ar
    10    23    42    1
    11    19    18    1
    12    38    16    1
    13    49    33    1
    14    50    34    1
    15    16    15    1
    16    16    17    2
    17    33    34    2
    18    33    32    1
    19    37    15    1
    20    18    17    1
    21    18     9    1
    22    34    11    1
    23    15    14    2
    24    17     7    1
    25    48    32    1
    26     2     9    1
    27     9     1    1
    28    32    31    2
    29    11     1    1
    30    11    30    1
    31     7    13    1
    32     7     1    1
    33    14    36    1
    34    14    13    1
    35    31    30    1
    36    31    47    1
    37    13    35    1
    38     1    10    1
    39     1    12    1
    40     1     3    1
    41    30    29    1
    42    43    24    1
    43    24    10    1
    44    24    25    1
    45    10    28    1
    46    12     6    2
    47    12     5    2
    48    44    25    1
    49    25    26    2
    50    29    28    1
    51    29     3    1
    52    29     4    1
    53    28    27    2
    54    26    27    1
    55    26    45    1
    56    27    46    1
    57     4    51    1
