@<TRIPOS>MOLECULE
CSD_code = RUWLIF | q = 0 | S = 0 | Stoichiometry = C16H26CoN3 | MND = 4
 46 48 0 0 0
SMALL
GASTEIGER

@<TRIPOS>ATOM
      1 CO          7.7529    5.0486    3.1273 Co.oh   1  UNL1        0.0000
      2 N           8.6891    3.4565    2.9506 N.pl3   1  UNL1        0.0000
      3 N           7.4567    4.4780    4.7627 N.pl3   1  UNL1        0.0000
      4 N           6.5211    6.3527    3.5800 N.3     1  UNL1        0.0000
      5 C           9.7506    1.6177    4.3108 C.3     1  UNL1        0.0000
      6 H           9.7159    0.9548    3.4495 H       1  UNL1        0.0000
      7 H           9.3794    1.0762    5.1782 H       1  UNL1        0.0000
      8 H          10.7950    1.8767    4.4947 H       1  UNL1        0.0000
      9 C           8.9416    2.8633    4.1052 C.2     1  UNL1        0.0000
     10 C           8.3397    3.5336    5.2130 C.2     1  UNL1        0.0000
     11 C           8.5460    3.3685    6.5773 C.2     1  UNL1        0.0000
     12 C           7.8966    4.2148    7.4672 C.2     1  UNL1        0.0000
     13 C           7.1201    5.2643    6.9927 C.2     1  UNL1        0.0000
     14 C           6.9322    5.4077    5.6229 C.2     1  UNL1        0.0000
     15 C           6.2680    6.4264    4.8755 C.3     1  UNL1        0.0000
     16 C           5.3314    7.4089    5.5121 C.3     1  UNL1        0.0000
     17 H           5.5148    8.4217    5.1583 H       1  UNL1        0.0000
     18 H           5.4526    7.3921    6.5909 H       1  UNL1        0.0000
     19 H           4.2943    7.1526    5.2868 H       1  UNL1        0.0000
     20 C           9.0566    2.8145    1.7020 C.3     1  UNL1        0.0000
     21 C           8.1457    3.3398    0.5938 C.3     1  UNL1        0.0000
     22 H           7.1011    3.1929    0.8667 H       1  UNL1        0.0000
     23 H           8.3404    2.8143   -0.3385 H       1  UNL1        0.0000
     24 H           8.3300    4.4013    0.4407 H       1  UNL1        0.0000
     25 C          10.5251    3.0624    1.3455 C.3     1  UNL1        0.0000
     26 H          10.6946    4.1266    1.2125 H       1  UNL1        0.0000
     27 H          10.7754    2.5471    0.4210 H       1  UNL1        0.0000
     28 H          11.1815    2.7039    2.1336 H       1  UNL1        0.0000
     29 C           5.7665    7.1717    2.6494 C.3     1  UNL1        0.0000
     30 C           6.4846    8.4913    2.3499 C.3     1  UNL1        0.0000
     31 H           6.7105    9.0271    3.2684 H       1  UNL1        0.0000
     32 H           5.8578    9.1218    1.7232 H       1  UNL1        0.0000
     33 H           7.4177    8.2933    1.8325 H       1  UNL1        0.0000
     34 C           5.5803    6.3671    1.3634 C.3     1  UNL1        0.0000
     35 H           6.5566    6.0185    1.0205 H       1  UNL1        0.0000
     36 H           5.1304    6.9794    0.5856 H       1  UNL1        0.0000
     37 H           4.9427    5.5042    1.5452 H       1  UNL1        0.0000
     38 C           9.2317    6.2662    2.5675 C.3     1  UNL1        0.0000
     39 H           9.1909    7.2153    3.1049 H       1  UNL1        0.0000
     40 H           9.2126    6.5030    1.4991 H       1  UNL1        0.0000
     41 H          10.2125    5.8369    2.7803 H       1  UNL1        0.0000
     42 H           8.8924    1.7291    1.7858 H       1  UNL1        0.0000
     43 H           8.0398    4.0903    8.5300 H       1  UNL1        0.0000
     44 H           9.2246    2.6129    6.9416 H       1  UNL1        0.0000
     45 H           4.7762    7.3986    3.0689 H       1  UNL1        0.0000
     46 H           6.6927    5.9738    7.6845 H       1  UNL1        0.0000
@<TRIPOS>BOND
     1    23    21    1
     2    27    25    1
     3    24    21    1
     4    36    34    1
     5    21    22    1
     6    21    20    1
     7    35    34    1
     8    26    25    1
     9    25    20    1
    10    25    28    1
    11    34    37    1
    12    34    29    1
    13    40    38    1
    14    20    42    1
    15    20     2    1
    16    32    30    1
    17    33    30    1
    18    30    29    1
    19    30    31    1
    20    38    41    1
    21    38    39    1
    22    38     1    1
    23    29    45    1
    24    29     4    1
    25     2     1    1
    26     2     9    1
    27     1     4    1
    28     1     3    1
    29     6     5    1
    30     4    15    1
    31     9     5    1
    32     9    10    2
    33     5     8    1
    34     5     7    1
    35     3    10    1
    36     3    14    1
    37    15    16    1
    38    15    14    1
    39    17    16    1
    40    10    11    1
    41    19    16    1
    42    16    18    1
    43    14    13    2
    44    11    44    1
    45    11    12    2
    46    13    12    1
    47    13    46    1
    48    12    43    1
