@<TRIPOS>MOLECULE
CSD_code = RUWLEB | q = 0 | S = 0 | Stoichiometry = C15H23ClCoN3 | MND = 4
 43 45 0 0 0
SMALL
GASTEIGER

@<TRIPOS>ATOM
      1 CO          2.4122    0.3284    1.5037 Co.oh   1  UNL1        0.0000
      2 CL          1.1921    1.4406    2.7746 Cl      1  UNL1        0.0000
      3 N           4.0411    1.2683    1.7485 N.pl3   1  UNL1        0.0000
      4 N           3.0462    0.0527   -0.0846 N.pl3   1  UNL1        0.0000
      5 N           1.1787   -1.0222    1.0040 N.3     1  UNL1        0.0000
      6 C           5.9813    2.2258    0.5024 C.3     1  UNL1        0.0000
      7 H           5.9457    3.1619    1.0552 H       1  UNL1        0.0000
      8 H           6.1831    2.4485   -0.5405 H       1  UNL1        0.0000
      9 H           6.8116    1.6319    0.8877 H       1  UNL1        0.0000
     10 C           4.6938    1.4687    0.6299 C.2     1  UNL1        0.0000
     11 C           4.0887    0.8194   -0.5004 C.2     1  UNL1        0.0000
     12 C           4.4264    0.8667   -1.8497 C.2     1  UNL1        0.0000
     13 H           5.2524    1.4689   -2.1920 H       1  UNL1        0.0000
     14 C           3.6756    0.1358   -2.7596 C.2     1  UNL1        0.0000
     15 H           3.9301    0.1581   -3.8080 H       1  UNL1        0.0000
     16 C           2.5823   -0.6030   -2.3291 C.2     1  UNL1        0.0000
     17 H           1.9792   -1.1406   -3.0431 H       1  UNL1        0.0000
     18 C           2.2732   -0.6269   -0.9725 C.2     1  UNL1        0.0000
     19 C           1.2156   -1.3053   -0.2750 C.3     1  UNL1        0.0000
     20 C           0.3196   -2.2838   -0.9728 C.3     1  UNL1        0.0000
     21 H           0.6352   -3.3067   -0.7610 H       1  UNL1        0.0000
     22 H           0.3667   -2.1331   -2.0467 H       1  UNL1        0.0000
     23 H          -0.7139   -2.1715   -0.6539 H       1  UNL1        0.0000
     24 C           4.6276    1.7073    3.0045 C.3     1  UNL1        0.0000
     25 H           5.7202    1.7560    2.8959 H       1  UNL1        0.0000
     26 C           4.3067    0.6857    4.0949 C.3     1  UNL1        0.0000
     27 H           3.2366    0.6683    4.2842 H       1  UNL1        0.0000
     28 H           4.8202    0.9542    5.0149 H       1  UNL1        0.0000
     29 H           4.6308   -0.3079    3.7882 H       1  UNL1        0.0000
     30 C           4.1009    3.0917    3.3918 C.3     1  UNL1        0.0000
     31 H           4.3227    3.8242    2.6185 H       1  UNL1        0.0000
     32 H           4.5603    3.4131    4.3229 H       1  UNL1        0.0000
     33 H           3.0237    3.0458    3.5247 H       1  UNL1        0.0000
     34 C           0.2900   -1.7738    1.8757 C.3     1  UNL1        0.0000
     35 H           0.0866   -2.7555    1.4256 H       1  UNL1        0.0000
     36 C          -1.0330   -1.0286    2.0720 C.3     1  UNL1        0.0000
     37 H          -0.8428   -0.0699    2.5464 H       1  UNL1        0.0000
     38 H          -1.6947   -1.6138    2.7056 H       1  UNL1        0.0000
     39 H          -1.5250   -0.8502    1.1180 H       1  UNL1        0.0000
     40 C           0.9821   -2.0045    3.2185 C.3     1  UNL1        0.0000
     41 H           1.9363   -2.5080    3.0699 H       1  UNL1        0.0000
     42 H           0.3545   -2.6223    3.8563 H       1  UNL1        0.0000
     43 H           1.1557   -1.0529    3.7146 H       1  UNL1        0.0000
@<TRIPOS>BOND
     1    15    14    1
     2    17    16    1
     3    14    16    1
     4    14    12    2
     5    16    18    2
     6    13    12    1
     7    22    20    1
     8    12    11    1
     9    20    21    1
    10    20    23    1
    11    20    19    1
    12    18    19    1
    13    18     4    1
    14     8     6    1
    15    11     4    1
    16    11    10    2
    17    19     5    1
    18     4     1    1
    19     6    10    1
    20     6     9    1
    21     6     7    1
    22    10     3    1
    23     5     1    1
    24     5    34    1
    25    39    36    1
    26    35    34    1
    27     1     3    1
    28     1     2    1
    29     3    24    1
    30    34    36    1
    31    34    40    1
    32    36    37    1
    33    36    38    1
    34    31    30    1
    35    25    24    1
    36    24    30    1
    37    24    26    1
    38    41    40    1
    39    40    43    1
    40    40    42    1
    41    30    33    1
    42    30    32    1
    43    29    26    1
    44    26    27    1
    45    26    28    1
