@<TRIPOS>MOLECULE
CSD_code = SAJVOQ | q = 1 | S = 0 | Stoichiometry = C28H28CoN6O6(1+) | MND = 6
 69 76 0 0 0
SMALL
GASTEIGER

@<TRIPOS>ATOM
      1 CO          3.6334    5.4033    6.7253 Co.oh   1  UNL1        0.0000
      2 O           3.0972    5.0175    4.9429 O.3     1  UNL1        0.0000
      3 N           3.1957    7.3693    6.5023 N.4     1  UNL1        0.0000
      4 H           3.9528    7.7993    7.0336 H       1  UNL1        0.0000
      5 N           1.7389    5.0742    7.2356 N.pl3   1  UNL1        0.0000
      6 O          -0.3719    9.1639    1.9439 O.2     1  UNL1        0.0000
      7 C           2.3009    5.7361    4.2010 C.ar    1  UNL1        0.0000
      8 C           2.3087    7.1513    4.2229 C.ar    1  UNL1        0.0000
      9 N          -0.3806    7.9574    1.8068 N.pl3   1  UNL1        0.0000
     10 C           3.3093    7.8403    5.1078 C.3     1  UNL1        0.0000
     11 H           3.1528    8.9242    5.0638 H       1  UNL1        0.0000
     12 H           4.3206    7.6233    4.7481 H       1  UNL1        0.0000
     13 C           1.4290    7.8636    3.4392 C.ar    1  UNL1        0.0000
     14 H           1.4163    8.9438    3.4522 H       1  UNL1        0.0000
     15 C           0.5433    7.1984    2.5988 C.ar    1  UNL1        0.0000
     16 C           1.4072    5.0902    3.3207 C.ar    1  UNL1        0.0000
     17 H           1.4241    4.0124    3.2718 H       1  UNL1        0.0000
     18 C           1.1011    3.9914    6.7764 C.3     1  UNL1        0.0000
     19 H           1.5574    3.4684    5.9484 H       1  UNL1        0.0000
     20 C           0.5476    5.8080    2.5276 C.ar    1  UNL1        0.0000
     21 H          -0.1388    5.3160    1.8557 H       1  UNL1        0.0000
     22 C           1.1041    5.8372    8.1350 C.2     1  UNL1        0.0000
     23 C           1.9608    7.8882    7.1085 C.3     1  UNL1        0.0000
     24 H           1.1343    7.7253    6.4098 H       1  UNL1        0.0000
     25 H           2.0601    8.9672    7.2717 H       1  UNL1        0.0000
     26 C           1.6609    7.1919    8.4348 C.3     1  UNL1        0.0000
     27 H           2.5770    7.1045    9.0218 H       1  UNL1        0.0000
     28 H           0.9347    7.7703    9.0035 H       1  UNL1        0.0000
     29 C          -0.1096    5.4447    8.6935 C.2     1  UNL1        0.0000
     30 H          -0.5704    6.0711    9.4405 H       1  UNL1        0.0000
     31 C          -0.1182    3.5598    7.2565 C.2     1  UNL1        0.0000
     32 H          -0.5809    2.6816    6.8375 H       1  UNL1        0.0000
     33 O          -1.1159    7.3464    1.0621 O.2     1  UNL1        0.0000
     34 C          -0.7212    4.2777    8.2790 C.2     1  UNL1        0.0000
     35 H          -1.6570    3.9577    8.7086 H       1  UNL1        0.0000
     36 O           4.1695    5.7891    8.5078 O.3     1  UNL1        0.0000
     37 N           4.0712    3.4374    6.9482 N.4     1  UNL1        0.0000
     38 H           3.3142    3.0074    6.4167 H       1  UNL1        0.0000
     39 N           5.5278    5.7327    6.2153 N.pl3   1  UNL1        0.0000
     40 O           7.6386    1.6428   11.5069 O.2     1  UNL1        0.0000
     41 C           4.9657    5.0704    9.2497 C.ar    1  UNL1        0.0000
     42 C           4.9580    3.6552    9.2277 C.ar    1  UNL1        0.0000
     43 N           7.6471    2.8492   11.6441 N.pl3   1  UNL1        0.0000
     44 C           3.9576    2.9662    8.3426 C.3     1  UNL1        0.0000
     45 H           4.1142    1.8823    8.3865 H       1  UNL1        0.0000
     46 H           2.9462    3.1831    8.7023 H       1  UNL1        0.0000
     47 C           5.8377    2.9429   10.0114 C.ar    1  UNL1        0.0000
     48 H           5.8505    1.8628    9.9984 H       1  UNL1        0.0000
     49 C           6.7232    3.6082   10.8520 C.ar    1  UNL1        0.0000
     50 C           5.8593    5.7164   10.1302 C.ar    1  UNL1        0.0000
     51 H           5.8422    6.7942   10.1792 H       1  UNL1        0.0000
     52 C           6.1654    6.8156    6.6745 C.3     1  UNL1        0.0000
     53 H           5.7091    7.3384    7.5026 H       1  UNL1        0.0000
     54 C           6.7188    4.9986   10.9234 C.ar    1  UNL1        0.0000
     55 H           7.4050    5.4906   11.5953 H       1  UNL1        0.0000
     56 C           6.1628    4.9700    5.3158 C.2     1  UNL1        0.0000
     57 C           5.3063    2.9187    6.3421 C.3     1  UNL1        0.0000
     58 H           6.1327    3.0818    7.0409 H       1  UNL1        0.0000
     59 H           5.2072    1.8397    6.1788 H       1  UNL1        0.0000
     60 C           5.6062    3.6151    5.0159 C.3     1  UNL1        0.0000
     61 H           4.6903    3.7024    4.4288 H       1  UNL1        0.0000
     62 H           6.3327    3.0369    4.4472 H       1  UNL1        0.0000
     63 C           7.3765    5.3628    4.7573 C.2     1  UNL1        0.0000
     64 H           7.8374    4.7366    4.0103 H       1  UNL1        0.0000
     65 C           7.3845    7.2476    6.1944 C.2     1  UNL1        0.0000
     66 H           7.8470    8.1259    6.6134 H       1  UNL1        0.0000
     67 O           8.3823    3.4602   12.3889 O.2     1  UNL1        0.0000
     68 C           7.9877    6.5300    5.1718 C.2     1  UNL1        0.0000
     69 H           8.9234    6.8502    4.7422 H       1  UNL1        0.0000
@<TRIPOS>BOND
     1    33     9    2
     2     9     6    2
     3     9    15    1
     4    21    20    1
     5    20    15   ar
     6    20    16   ar
     7    15    13   ar
     8    17    16    1
     9    16     7   ar
    10    13    14    1
    11    13     8   ar
    12    64    63    1
    13     7     8   ar
    14     7     2    1
    15     8    10    1
    16    61    60    1
    17    62    60    1
    18    69    68    1
    19    12    10    1
    20    63    68    1
    21    63    56    2
    22     2     1    1
    23    60    56    1
    24    60    57    1
    25    11    10    1
    26    10     3    1
    27    68    65    2
    28    56    39    1
    29    19    18    1
    30    59    57    1
    31    65    66    1
    32    65    52    1
    33    39    52    1
    34    39     1    1
    35    57    37    1
    36    57    58    1
    37    24    23    1
    38    38    37    1
    39     3     1    1
    40     3     4    1
    41     3    23    1
    42    52    53    1
    43     1    37    1
    44     1     5    1
    45     1    36    1
    46    18     5    1
    47    18    31    1
    48    32    31    1
    49    37    44    1
    50    23    25    1
    51    23    26    1
    52     5    22    1
    53    31    34    2
    54    22    26    1
    55    22    29    2
    56    34    29    1
    57    34    35    1
    58    44    45    1
    59    44    46    1
    60    44    42    1
    61    26    28    1
    62    26    27    1
    63    36    41    1
    64    29    30    1
    65    42    41   ar
    66    42    47   ar
    67    41    50   ar
    68    48    47    1
    69    47    49   ar
    70    50    51    1
    71    50    54   ar
    72    49    54   ar
    73    49    43    1
    74    54    55    1
    75    40    43    2
    76    43    67    2
