@<TRIPOS>MOLECULE
CSD_code = SASTIS | q = 1 | S = 0 | Stoichiometry = C22H25CoN5O4(1+) | MND = 6
 57 63 0 0 0
SMALL
GASTEIGER

@<TRIPOS>ATOM
      1 CO          4.5982    2.0875    2.7224 Co.oh   1  UNL1        0.0000
      2 O           2.1434   -0.2316    0.6558 O.2     1  UNL1        0.0000
      3 O           3.6067    1.0974    1.5099 O.3     1  UNL1        0.0000
      4 O           5.5599    3.0585    3.9741 O.2     1  UNL1        0.0000
      5 O          -0.8488   -3.0884   -1.5685 O.2     1  UNL1        0.0000
      6 N           5.7192    2.6665    1.2028 N.4     1  UNL1        0.0000
      7 H           5.3263    2.2131    0.3756 H       1  UNL1        0.0000
      8 N           3.5684    1.5654    4.1651 N.pl3   1  UNL1        0.0000
      9 N           4.0071    2.1128    5.3163 N.2     1  UNL1        0.0000
     10 N           3.5410    3.7567    2.3584 N.4     1  UNL1        0.0000
     11 H           2.5282    3.6512    2.2948 H       1  UNL1        0.0000
     12 H           3.7239    4.3924    3.1385 H       1  UNL1        0.0000
     13 N           5.9483    0.6176    2.9408 N.4     1  UNL1        0.0000
     14 H           6.4648    0.8204    3.8000 H       1  UNL1        0.0000
     15 H           5.5799   -0.3293    3.0339 H       1  UNL1        0.0000
     16 C           1.0598   -1.0831    0.6668 C.ar    1  UNL1        0.0000
     17 C           0.4001   -1.3262    1.9200 C.ar    1  UNL1        0.0000
     18 C           2.6027    0.3576    1.7563 C.ar    1  UNL1        0.0000
     19 C           5.5601    4.1105    1.0469 C.3     1  UNL1        0.0000
     20 H           5.9777    4.4786    0.1036 H       1  UNL1        0.0000
     21 H           6.0658    4.6047    1.8796 H       1  UNL1        0.0000
     22 C           2.0038    0.1491    3.0253 C.ar    1  UNL1        0.0000
     23 C           5.1338    3.3103    7.5975 C.ar    1  UNL1        0.0000
     24 H           4.2983    2.6391    7.7127 H       1  UNL1        0.0000
     25 C           0.6651   -1.6500   -0.4915 C.ar    1  UNL1        0.0000
     26 H           1.1826   -1.4482   -1.4156 H       1  UNL1        0.0000
     27 C          -0.4754   -2.5579   -0.5343 C.ar    1  UNL1        0.0000
     28 C           5.6425    3.5409    6.3190 C.ar    1  UNL1        0.0000
     29 C           5.0474    2.8793    5.1587 C.2     1  UNL1        0.0000
     30 C           0.8724   -0.7203    3.0494 C.ar    1  UNL1        0.0000
     31 H           0.3660   -0.9162    3.9797 H       1  UNL1        0.0000
     32 C           2.5165    0.7745    4.2004 C.3     1  UNL1        0.0000
     33 C           6.8860    0.6765    1.7995 C.3     1  UNL1        0.0000
     34 H           7.8461    0.2149    2.0482 H       1  UNL1        0.0000
     35 H           6.4407    0.1322    0.9629 H       1  UNL1        0.0000
     36 C           5.7036    3.9380    8.6873 C.ar    1  UNL1        0.0000
     37 H           5.3112    3.7586    9.6764 H       1  UNL1        0.0000
     38 C           7.0674    2.1427    1.4097 C.3     1  UNL1        0.0000
     39 H           7.5297    2.6950    2.2312 H       1  UNL1        0.0000
     40 H           7.6946    2.2354    0.5166 H       1  UNL1        0.0000
     41 C           1.9076    0.5759    5.5540 C.3     1  UNL1        0.0000
     42 H           1.0397   -0.0683    5.5447 H       1  UNL1        0.0000
     43 H           2.6601    0.1585    6.2216 H       1  UNL1        0.0000
     44 H           1.6321    1.5471    5.9627 H       1  UNL1        0.0000
     45 C           4.0562    4.3711    1.1168 C.3     1  UNL1        0.0000
     46 H           3.8421    5.4432    1.0839 H       1  UNL1        0.0000
     47 H           3.5657    3.8890    0.2676 H       1  UNL1        0.0000
     48 C           6.7239    4.4052    6.1506 C.ar    1  UNL1        0.0000
     49 H           7.1112    4.5780    5.1574 H       1  UNL1        0.0000
     50 C          -0.7283   -2.2105    1.8949 C.ar    1  UNL1        0.0000
     51 H          -1.2353   -2.3971    2.8308 H       1  UNL1        0.0000
     52 C          -1.1396   -2.7868    0.7531 C.ar    1  UNL1        0.0000
     53 H          -1.9881   -3.4540    0.7339 H       1  UNL1        0.0000
     54 C           6.7787    4.7978    8.5147 C.ar    1  UNL1        0.0000
     55 H           7.2205    5.2864    9.3694 H       1  UNL1        0.0000
     56 C           7.2868    5.0304    7.2463 C.ar    1  UNL1        0.0000
     57 H           8.1224    5.7004    7.1128 H       1  UNL1        0.0000
@<TRIPOS>BOND
     1     5    27    2
     2    26    25    1
     3    27    25   ar
     4    27    52   ar
     5    25    16   ar
     6    20    19    1
     7    47    45    1
     8     7     6    1
     9    40    38    1
    10     2    16   ar
    11     2    18   ar
    12    16    17    1
    13    53    52    1
    14    52    50   ar
    15    35    33    1
    16    19    45    1
    17    19     6    1
    18    19    21    1
    19    46    45    1
    20    45    10    1
    21     6    38    1
    22     6     1    1
    23    38    33    1
    24    38    39    1
    25     3    18    1
    26     3     1    1
    27    18    22   ar
    28    33    34    1
    29    33    13    1
    30    50    17   ar
    31    50    51    1
    32    17    30   ar
    33    11    10    1
    34    10     1    1
    35    10    12    1
    36     1    13    1
    37     1     4    1
    38     1     8    1
    39    13    15    1
    40    13    14    1
    41    22    30   ar
    42    22    32    1
    43    30    31    1
    44     4    29    1
    45     8    32    1
    46     8     9    1
    47    32    41    1
    48    49    48    1
    49    29     9    2
    50    29    28    1
    51    42    41    1
    52    41    44    1
    53    41    43    1
    54    48    28   ar
    55    48    56   ar
    56    28    23   ar
    57    57    56    1
    58    56    54   ar
    59    23    24    1
    60    23    36   ar
    61    54    36   ar
    62    54    55    1
    63    36    37    1
