@<TRIPOS>MOLECULE
CSD_code = SASTUE | q = 1 | S = 0 | Stoichiometry = C22H24ClCoN5O4(1+) | MND = 6
 57 63 0 0 0
SMALL
GASTEIGER

@<TRIPOS>ATOM
      1 CO         -0.7293    2.0518    3.5504 Co.oh   1  UNL1        0.0000
      2 CL         -3.6556    5.5556   -3.5740 Cl      1  UNL1        0.0000
      3 O           0.2527    1.0670    4.7797 O.3     1  UNL1        0.0000
      4 O           1.7386   -0.2436    5.6376 O.2     1  UNL1        0.0000
      5 O          -1.6928    3.0237    2.3000 O.2     1  UNL1        0.0000
      6 O           4.8034   -3.0288    7.8520 O.2     1  UNL1        0.0000
      7 N           0.3506    3.7083    3.8877 N.4     1  UNL1        0.0000
      8 H           1.3623    3.5901    3.9474 H       1  UNL1        0.0000
      9 H           0.1729    4.3381    3.1016 H       1  UNL1        0.0000
     10 N          -2.0951    0.5956    3.3561 N.4     1  UNL1        0.0000
     11 H          -2.6140    0.7918    2.4968 H       1  UNL1        0.0000
     12 H          -1.7371   -0.3563    3.2736 H       1  UNL1        0.0000
     13 N          -0.1682    2.0479    0.9463 N.2     1  UNL1        0.0000
     14 N          -1.8338    2.6608    5.0680 N.4     1  UNL1        0.0000
     15 H          -1.4423    2.2121    5.8984 H       1  UNL1        0.0000
     16 C          -1.6558    4.1044    5.2063 C.3     1  UNL1        0.0000
     17 H          -2.0632    4.4884    6.1476 H       1  UNL1        0.0000
     18 H          -2.1599    4.5953    4.3707 H       1  UNL1        0.0000
     19 C           3.4701   -1.3460    4.3552 C.2     1  UNL1        0.0000
     20 C           2.9739   -0.7609    3.2252 C.2     1  UNL1        0.0000
     21 H           3.4552   -0.9591    2.2822 H       1  UNL1        0.0000
     22 N           0.2825    1.5053    2.0965 N.pl3   1  UNL1        0.0000
     23 C           1.3240    0.7039    2.0795 C.3     1  UNL1        0.0000
     24 C           1.8387    0.1031    3.2656 C.2     1  UNL1        0.0000
     25 C           1.2582    0.3273    4.5370 C.3     1  UNL1        0.0000
     26 C          -3.4372    5.0088   -0.9454 C.ar    1  UNL1        0.0000
     27 H          -4.2619    5.6898   -0.8087 H       1  UNL1        0.0000
     28 C           1.9854    0.4169    0.7655 C.3     1  UNL1        0.0000
     29 H           1.4595    0.9457   -0.0228 H       1  UNL1        0.0000
     30 H           1.9645   -0.6506    0.5567 H       1  UNL1        0.0000
     31 H           3.0225    0.7452    0.7853 H       1  UNL1        0.0000
     32 C          -0.1490    4.3437    5.1255 C.3     1  UNL1        0.0000
     33 H           0.3392    3.8635    5.9771 H       1  UNL1        0.0000
     34 H           0.0805    5.4130    5.1451 H       1  UNL1        0.0000
     35 C          -3.0263    0.6784    4.5013 C.3     1  UNL1        0.0000
     36 H          -3.9924    0.2239    4.2633 H       1  UNL1        0.0000
     37 H          -2.5820    0.1402    5.3423 H       1  UNL1        0.0000
     38 C           2.8308   -1.0858    5.6166 C.2     1  UNL1        0.0000
     39 C          -1.7955    3.4943   -0.0433 C.ar    1  UNL1        0.0000
     40 C           3.2533   -1.6284    6.7766 C.3     1  UNL1        0.0000
     41 H           2.7517   -1.4145    7.7068 H       1  UNL1        0.0000
     42 C          -3.1893    2.1511    4.8739 C.3     1  UNL1        0.0000
     43 H          -3.6487    2.6991    4.0480 H       1  UNL1        0.0000
     44 H          -3.8108    2.2621    5.7688 H       1  UNL1        0.0000
     45 C           4.4041   -2.5238    6.8149 C.2     1  UNL1        0.0000
     46 C          -2.8642    4.3732    0.1362 C.ar    1  UNL1        0.0000
     47 H          -3.2382    4.5528    1.1328 H       1  UNL1        0.0000
     48 C          -2.9441    4.7669   -2.2221 C.ar    1  UNL1        0.0000
     49 C          -1.1957    2.8290    1.1111 C.2     1  UNL1        0.0000
     50 C           5.0449   -2.7719    5.5192 C.2     1  UNL1        0.0000
     51 H           5.8999   -3.4307    5.5334 H       1  UNL1        0.0000
     52 C          -1.8799    3.8918   -2.4149 C.ar    1  UNL1        0.0000
     53 H          -1.5082    3.7129   -3.4110 H       1  UNL1        0.0000
     54 C           4.6058   -2.2210    4.3753 C.2     1  UNL1        0.0000
     55 H           5.0957   -2.4208    3.4330 H       1  UNL1        0.0000
     56 C          -1.3091    3.2602   -1.3307 C.ar    1  UNL1        0.0000
     57 H          -0.4843    2.5794   -1.4626 H       1  UNL1        0.0000
@<TRIPOS>BOND
     1     2    48    1
     2    53    52    1
     3    52    48   ar
     4    52    56   ar
     5    48    26   ar
     6    57    56    1
     7    56    39   ar
     8    26    27    1
     9    26    46   ar
    10    39    46   ar
    11    39    49    1
    12    29    28    1
    13    46    47    1
    14    30    28    1
    15    28    31    1
    16    28    23    1
    17    13    49    2
    18    13    22    1
    19    49     5    1
    20    23    22    1
    21    23    24    1
    22    22     1    1
    23    21    20    1
    24     5     1    1
    25    11    10    1
    26     9     7    1
    27    20    24    2
    28    20    19    1
    29    24    25    1
    30    12    10    1
    31    10     1    1
    32    10    35    1
    33    55    54    1
    34     1     7    1
    35     1     3    1
    36     1    14    1
    37     7     8    1
    38     7    32    1
    39    43    42    1
    40    36    35    1
    41    19    54    1
    42    19    38    2
    43    18    16    1
    44    54    50    2
    45    35    42    1
    46    35    37    1
    47    25     3    1
    48    25     4    1
    49    42    14    1
    50    42    44    1
    51    14    16    1
    52    14    15    1
    53    32    34    1
    54    32    16    1
    55    32    33    1
    56    16    17    1
    57    50    51    1
    58    50    45    1
    59    38     4    1
    60    38    40    1
    61    40    45    1
    62    40    41    1
    63    45     6    2
