@<TRIPOS>MOLECULE
CSD_code = SASVEN | q = -1 | S = 0 | Stoichiometry = C14H6CoN2O4S4(1-) | MND = 6
 31 36 0 0 0
SMALL
GASTEIGER

@<TRIPOS>ATOM
      1 CO         -0.7240    6.0516    3.4772 Co.oh   1  UNL1        0.0000
      2 S           0.8619    7.6697    3.7958 S.3     1  UNL1        0.0000
      3 S          -2.2803    4.4343    3.0327 S.3     1  UNL1        0.0000
      4 O           2.2358    8.5494    1.7671 O.2     1  UNL1        0.0000
      5 O          -2.5704    3.5541    0.6001 O.2     1  UNL1        0.0000
      6 N          -0.2949    6.0523    1.7066 N.pl3   1  UNL1        0.0000
      7 C           0.6536    6.8698    1.2300 C.3     1  UNL1        0.0000
      8 C           1.0038    6.8952   -0.1159 C.2     1  UNL1        0.0000
      9 C           0.3620    6.0538   -1.0052 C.2     1  UNL1        0.0000
     10 C          -0.6152    5.2114   -0.5090 C.2     1  UNL1        0.0000
     11 C          -0.9197    5.2352    0.8479 C.2     1  UNL1        0.0000
     12 C          -1.9797    4.3143    1.3413 C.2     1  UNL1        0.0000
     13 C           1.3702    7.7899    2.1548 C.2     1  UNL1        0.0000
     14 H           1.7776    7.5841   -0.4181 H       1  UNL1        0.0000
     15 H           0.6160    6.0546   -2.0545 H       1  UNL1        0.0000
     16 H          -1.1647    4.5231   -1.1327 H       1  UNL1        0.0000
     17 S          -2.3107    7.6692    3.1583 S.3     1  UNL1        0.0000
     18 S           0.8309    4.4332    3.9215 S.3     1  UNL1        0.0000
     19 N          -1.1542    6.0519    5.2475 N.pl3   1  UNL1        0.0000
     20 C          -2.8197    7.7890    4.7991 C.2     1  UNL1        0.0000
     21 C           0.5308    4.3141    5.6131 C.2     1  UNL1        0.0000
     22 C          -2.1026    6.8695    5.7241 C.3     1  UNL1        0.0000
     23 C          -0.5294    5.2350    6.1063 C.2     1  UNL1        0.0000
     24 O          -3.6845    8.5492    5.1867 O.2     1  UNL1        0.0000
     25 O           1.1213    3.5538    6.3543 O.2     1  UNL1        0.0000
     26 C          -2.4526    6.8953    7.0700 C.2     1  UNL1        0.0000
     27 C          -0.8338    5.2114    7.4633 C.2     1  UNL1        0.0000
     28 C          -1.8109    6.0539    7.9594 C.2     1  UNL1        0.0000
     29 H          -3.2266    7.5840    7.3722 H       1  UNL1        0.0000
     30 H          -0.2843    4.5231    8.0870 H       1  UNL1        0.0000
     31 H          -2.0650    6.0548    9.0087 H       1  UNL1        0.0000
@<TRIPOS>BOND
     1    15     9    1
     2    16    10    1
     3     9    10    1
     4     9     8    2
     5    10    11    2
     6    14     8    1
     7     8     7    1
     8     5    12    2
     9    11    12    1
    10    11     6    1
    11     7     6    1
    12     7    13    1
    13    12     3    1
    14     6     1    1
    15     4    13    2
    16    13     2    1
    17     3     1    1
    18    17     1    1
    19    17    20    1
    20     1     2    1
    21     1    18    1
    22     1    19    1
    23    18    21    1
    24    20    24    2
    25    20    22    1
    26    19    22    1
    27    19    23    1
    28    21    23    1
    29    21    25    2
    30    22    26    1
    31    23    27    2
    32    26    29    1
    33    26    28    2
    34    27    28    1
    35    27    30    1
    36    28    31    1
