@<TRIPOS>MOLECULE
CSD_code = SAWVOE | q = 1 | S = 0 | Stoichiometry = C34H20CoN6O8(1+) | MND = 6
 69 78 0 0 0
SMALL
GASTEIGER

@<TRIPOS>ATOM
      1 CO          4.9493    5.6610    7.8402 Co.oh   1  UNL1        0.0000
      2 O           6.6068    4.8808    8.2675 O.3     1  UNL1        0.0000
      3 O           8.1786    4.8650    9.8434 O.2     1  UNL1        0.0000
      4 O           7.6911   11.2227   16.7148 O.2     1  UNL1        0.0000
      5 O           6.9221   12.8955   15.6029 O.2     1  UNL1        0.0000
      6 O           5.7504    7.0819    6.9039 O.3     1  UNL1        0.0000
      7 O           6.4231    7.6767    4.8673 O.2     1  UNL1        0.0000
      8 O           5.8294   -0.2095   -1.2189 O.2     1  UNL1        0.0000
      9 O           7.7246    0.7951   -1.3756 O.2     1  UNL1        0.0000
     10 N           3.3054    6.6743    7.7635 N.pl3   1  UNL1        0.0000
     11 N           5.1764    6.5569    9.3865 N.pl3   1  UNL1        0.0000
     12 N           7.1808   11.7234   15.7412 N.pl3   1  UNL1        0.0000
     13 N           4.1390    4.0071    8.4263 N.pl3   1  UNL1        0.0000
     14 N           4.9754    4.8306    6.2418 N.pl3   1  UNL1        0.0000
     15 N           6.6674    0.5729   -0.8363 N.pl3   1  UNL1        0.0000
     16 C           2.3669    6.6525    6.8224 C.3     1  UNL1        0.0000
     17 H           2.4638    5.8979    6.0537 H       1  UNL1        0.0000
     18 C           1.3062    7.5425    6.7991 C.2     1  UNL1        0.0000
     19 H           0.5754    7.4864    6.0090 H       1  UNL1        0.0000
     20 C           1.2125    8.5003    7.7977 C.2     1  UNL1        0.0000
     21 H           0.4026    9.2128    7.8047 H       1  UNL1        0.0000
     22 C           2.1841    8.5292    8.7836 C.2     1  UNL1        0.0000
     23 H           2.1449    9.2617    9.5730 H       1  UNL1        0.0000
     24 C           3.2246    7.6085    8.7419 C.2     1  UNL1        0.0000
     25 C           4.3432    7.5621    9.6841 C.3     1  UNL1        0.0000
     26 C           4.6392    8.4236   10.7305 C.2     1  UNL1        0.0000
     27 H           3.9674    9.2261   10.9888 H       1  UNL1        0.0000
     28 C           5.8273    8.2486   11.4513 C.2     1  UNL1        0.0000
     29 C           6.6925    7.2142   11.0751 C.2     1  UNL1        0.0000
     30 H           7.6475    7.0648   11.5537 H       1  UNL1        0.0000
     31 C           6.3334    6.3949   10.0218 C.2     1  UNL1        0.0000
     32 C           7.1592    5.2859    9.3644 C.2     1  UNL1        0.0000
     33 C           6.1757    9.1485   12.5559 C.ar    1  UNL1        0.0000
     34 C           5.9125   10.5171   12.4641 C.ar    1  UNL1        0.0000
     35 H           5.4784   10.9247   11.5643 H       1  UNL1        0.0000
     36 C           6.2485   11.3632   13.5014 C.ar    1  UNL1        0.0000
     37 H           6.0626   12.4251   13.4461 H       1  UNL1        0.0000
     38 C           6.8403   10.8363   14.6413 C.ar    1  UNL1        0.0000
     39 C           7.1120    9.4793   14.7513 C.ar    1  UNL1        0.0000
     40 H           7.5763    9.1047   15.6508 H       1  UNL1        0.0000
     41 C           6.7845    8.6399   13.7057 C.ar    1  UNL1        0.0000
     42 H           6.9781    7.5818   13.7893 H       1  UNL1        0.0000
     43 C           3.7322    3.6766    9.6478 C.3     1  UNL1        0.0000
     44 H           3.7385    4.4603   10.3932 H       1  UNL1        0.0000
     45 C           3.3181    2.3978    9.9809 C.2     1  UNL1        0.0000
     46 H           3.0045    2.1804   10.9888 H       1  UNL1        0.0000
     47 C           3.3255    1.4146    9.0028 C.2     1  UNL1        0.0000
     48 H           3.0168    0.4066    9.2314 H       1  UNL1        0.0000
     49 C           3.7439    1.7504    7.7266 C.2     1  UNL1        0.0000
     50 H           3.7673    1.0108    6.9431 H       1  UNL1        0.0000
     51 C           4.1512    3.0532    7.4639 C.2     1  UNL1        0.0000
     52 C           4.6674    3.5285    6.1798 C.3     1  UNL1        0.0000
     53 C           4.9175    2.8097    5.0200 C.2     1  UNL1        0.0000
     54 H           4.6927    1.7568    4.9661 H       1  UNL1        0.0000
     55 C           5.5247    3.4488    3.9314 C.2     1  UNL1        0.0000
     56 C           5.8758    4.7980    4.0577 C.2     1  UNL1        0.0000
     57 H           6.3622    5.3403    3.2624 H       1  UNL1        0.0000
     58 C           5.5923    5.4524    5.2415 C.2     1  UNL1        0.0000
     59 C           5.9780    6.8772    5.6475 C.2     1  UNL1        0.0000
     60 C           5.8176    2.7079    2.6999 C.ar    1  UNL1        0.0000
     61 C           7.0178    2.9260    2.0196 C.ar    1  UNL1        0.0000
     62 H           7.7411    3.6227    2.4131 H       1  UNL1        0.0000
     63 C           7.3017    2.2250    0.8647 C.ar    1  UNL1        0.0000
     64 H           8.2273    2.3728    0.3294 H       1  UNL1        0.0000
     65 C           6.3755    1.3107    0.3814 C.ar    1  UNL1        0.0000
     66 C           5.1735    1.0858    1.0388 C.ar    1  UNL1        0.0000
     67 H           4.4746    0.3716    0.6306 H       1  UNL1        0.0000
     68 C           4.9008    1.7804    2.1995 C.ar    1  UNL1        0.0000
     69 H           3.9587    1.6266    2.7032 H       1  UNL1        0.0000
@<TRIPOS>BOND
     1     9    15    2
     2     8    15    2
     3    15    65    1
     4    64    63    1
     5    65    63   ar
     6    65    66   ar
     7    67    66    1
     8    63    61   ar
     9    66    68   ar
    10    61    62    1
    11    61    60   ar
    12    68    60   ar
    13    68    69    1
    14    60    55    1
    15    57    56    1
    16    55    56    1
    17    55    53    2
    18    56    58    2
    19     7    59    2
    20    54    53    1
    21    53    52    1
    22    58    59    1
    23    58    14    1
    24    59     6    1
    25    19    18    1
    26    17    16    1
    27    52    14    1
    28    52    51    1
    29    14     1    1
    30    18    16    1
    31    18    20    2
    32    16    10    1
    33     6     1    1
    34    50    49    1
    35    51    49    2
    36    51    13    1
    37    49    47    1
    38    10     1    1
    39    10    24    1
    40    20    21    1
    41    20    22    1
    42     1     2    1
    43     1    13    1
    44     1    11    1
    45     2    32    1
    46    13    43    1
    47    24    22    2
    48    24    25    1
    49    22    23    1
    50    47    48    1
    51    47    45    2
    52    32     3    2
    53    32    31    1
    54    11    25    1
    55    11    31    1
    56    43    45    1
    57    43    44    1
    58    25    26    1
    59    45    46    1
    60    31    29    2
    61    26    27    1
    62    26    28    2
    63    29    28    1
    64    29    30    1
    65    28    33    1
    66    35    34    1
    67    34    33   ar
    68    34    36   ar
    69    33    41   ar
    70    37    36    1
    71    36    38   ar
    72    41    42    1
    73    41    39   ar
    74    38    39   ar
    75    38    12    1
    76    39    40    1
    77     5    12    2
    78    12     4    2
