@<TRIPOS>MOLECULE
CSD_code = SIMCIC | q = 0 | S = 0 | Stoichiometry = C18H25CoI2N2O3 | MND = 6
 51 54 0 0 0
SMALL
GASTEIGER

@<TRIPOS>ATOM
      1 CO          1.7730    1.7168   19.8221 Co.oh   1  UNL1        0.0000
      2 I           4.2785    1.8296   19.2737 I       1  UNL1        0.0000
      3 I          -0.7283    1.7913   20.3891 I       1  UNL1        0.0000
      4 N           1.2807    1.3010   17.9765 N.3     1  UNL1        0.0000
      5 N           2.2840    1.5727   21.7313 N.3     1  UNL1        0.0000
      6 O           0.6804   -0.3148   16.5583 O.3     1  UNL1        0.0000
      7 O           2.9587    0.1655   23.3290 O.3     1  UNL1        0.0000
      8 O           1.7124    3.9186   19.6080 O.3     2  HOH2        0.0000
      9 C           1.8156   -0.1141   19.9479 C.ar    1  UNL1        0.0000
     10 C           1.5054   -0.8670   18.8210 C.ar    1  UNL1        0.0000
     11 C           1.5322   -2.2551   18.9160 C.ar    1  UNL1        0.0000
     12 H           1.2895   -2.8636   18.0580 H       1  UNL1        0.0000
     13 C           1.8758   -2.8382   20.1297 C.ar    1  UNL1        0.0000
     14 H           1.8994   -3.9151   20.2015 H       1  UNL1        0.0000
     15 C           2.1901   -2.0848   21.2535 C.ar    1  UNL1        0.0000
     16 H           2.4569   -2.5622   22.1842 H       1  UNL1        0.0000
     17 C           2.1556   -0.6958   21.1631 C.ar    1  UNL1        0.0000
     18 C           1.1646    0.0312   17.7435 C.3     1  UNL1        0.0000
     19 C           0.3209    0.8983   15.8904 C.3     1  UNL1        0.0000
     20 H          -0.7678    0.9159   15.7856 H       1  UNL1        0.0000
     21 H           0.7788    0.8933   14.9013 H       1  UNL1        0.0000
     22 C           0.8422    2.0334   16.8021 C.3     1  UNL1        0.0000
     23 H           0.0280    2.7076   17.0950 H       1  UNL1        0.0000
     24 C           3.0978    2.0450   15.5971 C.3     1  UNL1        0.0000
     25 H           2.8046    1.6165   14.6410 H       1  UNL1        0.0000
     26 H           3.3898    1.2396   16.2659 H       1  UNL1        0.0000
     27 H           3.9730    2.6676   15.4312 H       1  UNL1        0.0000
     28 C           1.9780    2.8872   16.2036 C.3     1  UNL1        0.0000
     29 H           2.3966    3.4608   17.0367 H       1  UNL1        0.0000
     30 C           1.4144    3.8639   15.1761 C.3     1  UNL1        0.0000
     31 H           2.2148    4.4803   14.7749 H       1  UNL1        0.0000
     32 H           0.6699    4.5169   15.6265 H       1  UNL1        0.0000
     33 H           0.9471    3.3305   14.3507 H       1  UNL1        0.0000
     34 C           2.4563    0.3458   22.1150 C.3     1  UNL1        0.0000
     35 C           3.2771    1.4616   23.8402 C.3     1  UNL1        0.0000
     36 H           4.3661    1.5381   23.9134 H       1  UNL1        0.0000
     37 H           2.8411    1.5560   24.8345 H       1  UNL1        0.0000
     38 C           2.6889    2.4556   22.8124 C.3     1  UNL1        0.0000
     39 H           3.4668    3.1350   22.4409 H       1  UNL1        0.0000
     40 C           0.4433    2.4733   24.0375 C.3     1  UNL1        0.0000
     41 H           0.7727    2.1523   25.0230 H       1  UNL1        0.0000
     42 H           0.1808    1.5957   23.4527 H       1  UNL1        0.0000
     43 H          -0.4585    3.0670   24.1618 H       1  UNL1        0.0000
     44 C           1.5101    3.3057   23.3302 C.3     1  UNL1        0.0000
     45 H           1.0458    3.7608   22.4486 H       1  UNL1        0.0000
     46 C           2.0236    4.4194   24.2379 C.3     1  UNL1        0.0000
     47 H           2.5210    4.0055   25.1125 H       1  UNL1        0.0000
     48 H           1.1927    5.0329   24.5766 H       1  UNL1        0.0000
     49 H           2.7321    5.0580   23.7140 H       1  UNL1        0.0000
     50 H           0.9568    4.4073   19.9542 H       0  HOH0        0.0000
     51 H           2.5174    4.4302   19.7466 H       0  HOH0        0.0000
@<TRIPOS>BOND
     1    33    30    1
     2    25    24    1
     3    31    30    1
     4    21    19    1
     5    30    32    1
     6    30    28    1
     7    27    24    1
     8    24    28    1
     9    24    26    1
    10    20    19    1
    11    19     6    1
    12    19    22    1
    13    28    22    1
    14    28    29    1
    15     6    18    1
    16    22    23    1
    17    22     4    1
    18    18     4    1
    19    18    10    1
    20     4     1    1
    21    12    11    1
    22    10    11   ar
    23    10     9   ar
    24    11    13   ar
    25     2     1    1
    26     8    51    1
    27     8    50    1
    28     1     9    1
    29     1     3    1
    30     1     5    1
    31     9    17   ar
    32    13    14    1
    33    13    15   ar
    34    17    15   ar
    35    17    34    1
    36    15    16    1
    37     5    34    1
    38     5    38    1
    39    34     7    1
    40    39    38    1
    41    45    44    1
    42    38    44    1
    43    38    35    1
    44     7    35    1
    45    44    40    1
    46    44    46    1
    47    42    40    1
    48    49    46    1
    49    35    36    1
    50    35    37    1
    51    40    43    1
    52    40    41    1
    53    46    48    1
    54    46    47    1
