@<TRIPOS>MOLECULE
CSD_code = SOZZEO | q = 1 | S = 0 | Stoichiometry = C36H26CoN4O2(1+) | MND = 6
 69 78 0 0 0
SMALL
GASTEIGER

@<TRIPOS>ATOM
      1 CO          1.8686    0.2785   15.1173 Co.oh   1  UNL1        0.0000
      2 O           0.6824    0.5768   13.7018 O.3     1  UNL1        0.0000
      3 C           0.3823    1.8332   13.6148 C.ar    1  UNL1        0.0000
      4 C          -0.4847    2.3401   12.6288 C.ar    1  UNL1        0.0000
      5 H          -0.9358    1.6510   11.9330 H       1  UNL1        0.0000
      6 C          -0.7284    3.6894   12.5692 C.ar    1  UNL1        0.0000
      7 H          -1.3925    4.0761   11.8113 H       1  UNL1        0.0000
      8 C          -0.1234    4.5799   13.4647 C.ar    1  UNL1        0.0000
      9 H          -0.3173    5.6370   13.3774 H       1  UNL1        0.0000
     10 C           0.7124    4.1195   14.4517 C.ar    1  UNL1        0.0000
     11 H           1.1859    4.8104   15.1299 H       1  UNL1        0.0000
     12 C           0.9599    2.7426   14.5516 C.ar    1  UNL1        0.0000
     13 N           1.7464    2.0759   15.4526 N.pl3   1  UNL1        0.0000
     14 C           2.3077    2.4930   16.5537 C.2     1  UNL1        0.0000
     15 C           3.0581    1.4593   17.2351 C.2     1  UNL1        0.0000
     16 C           3.7356    1.6472   18.4425 C.2     1  UNL1        0.0000
     17 H           3.7213    2.6186   18.9102 H       1  UNL1        0.0000
     18 C           4.3978    0.5821   19.0194 C.2     1  UNL1        0.0000
     19 H           4.9224    0.7035   19.9540 H       1  UNL1        0.0000
     20 C           4.3703   -0.6502   18.3782 C.2     1  UNL1        0.0000
     21 H           4.8713   -1.5083   18.7945 H       1  UNL1        0.0000
     22 C           3.6709   -0.7686   17.1895 C.2     1  UNL1        0.0000
     23 H           3.6223   -1.7202   16.6780 H       1  UNL1        0.0000
     24 N           3.0308    0.2496   16.6268 N.pl3   1  UNL1        0.0000
     25 C           2.1771    3.8328   17.1584 C.ar    1  UNL1        0.0000
     26 C           3.2820    4.6723   17.2719 C.ar    1  UNL1        0.0000
     27 H           4.2377    4.3579   16.8772 H       1  UNL1        0.0000
     28 C           3.1482    5.9137   17.8690 C.ar    1  UNL1        0.0000
     29 H           4.0050    6.5653   17.9452 H       1  UNL1        0.0000
     30 C           1.9209    6.3161   18.3693 C.ar    1  UNL1        0.0000
     31 H           1.8210    7.2828   18.8375 H       1  UNL1        0.0000
     32 C           0.8221    5.4770   18.2692 C.ar    1  UNL1        0.0000
     33 H          -0.1332    5.7870   18.6632 H       1  UNL1        0.0000
     34 C           0.9442    4.2399   17.6643 C.ar    1  UNL1        0.0000
     35 H           0.0935    3.5806   17.5803 H       1  UNL1        0.0000
     36 O           0.4383   -0.0387   16.2804 O.3     1  UNL1        0.0000
     37 C           0.1454   -1.2995   16.3105 C.ar    1  UNL1        0.0000
     38 C          -0.8864   -1.8202   17.1135 C.ar    1  UNL1        0.0000
     39 H          -1.4725   -1.1388   17.7090 H       1  UNL1        0.0000
     40 C          -1.1168   -3.1732   17.1281 C.ar    1  UNL1        0.0000
     41 H          -1.9077   -3.5705   17.7459 H       1  UNL1        0.0000
     42 C          -0.3383   -4.0537   16.3668 C.ar    1  UNL1        0.0000
     43 H          -0.5292   -5.1136   16.4179 H       1  UNL1        0.0000
     44 C           0.6635   -3.5797   15.5566 C.ar    1  UNL1        0.0000
     45 H           1.2684   -4.2627   14.9829 H       1  UNL1        0.0000
     46 C           0.9045   -2.1992   15.5028 C.ar    1  UNL1        0.0000
     47 N           1.8383   -1.5198   14.7669 N.pl3   1  UNL1        0.0000
     48 C           2.6035   -1.9268   13.7921 C.2     1  UNL1        0.0000
     49 C           3.4556   -0.8816   13.2653 C.2     1  UNL1        0.0000
     50 C           4.3525   -1.0573   12.2084 C.2     1  UNL1        0.0000
     51 H           4.4401   -2.0275   11.7462 H       1  UNL1        0.0000
     52 C           5.0979    0.0179   11.7680 C.2     1  UNL1        0.0000
     53 H           5.7920   -0.0943   10.9499 H       1  UNL1        0.0000
     54 C           4.9329    1.2480   12.3925 C.2     1  UNL1        0.0000
     55 H           5.4924    2.1136   12.0791 H       1  UNL1        0.0000
     56 C           4.0187    1.3541   13.4265 C.2     1  UNL1        0.0000
     57 H           3.8611    2.3036   13.9195 H       1  UNL1        0.0000
     58 N           3.2969    0.3262   13.8571 N.pl3   1  UNL1        0.0000
     59 C           2.6068   -3.2663   13.1731 C.ar    1  UNL1        0.0000
     60 C           1.4949   -3.6892   12.4475 C.ar    1  UNL1        0.0000
     61 H           0.6337   -3.0423   12.3732 H       1  UNL1        0.0000
     62 C           1.5049   -4.9257   11.8293 C.ar    1  UNL1        0.0000
     63 H           0.6436   -5.2478   11.2650 H       1  UNL1        0.0000
     64 C           2.6154   -5.7487   11.9334 C.ar    1  UNL1        0.0000
     65 H           2.6181   -6.7149   11.4537 H       1  UNL1        0.0000
     66 C           3.7230   -5.3307   12.6525 C.ar    1  UNL1        0.0000
     67 H           4.5885   -5.9698   12.7355 H       1  UNL1        0.0000
     68 C           3.7257   -4.0897   13.2652 C.ar    1  UNL1        0.0000
     69 H           4.5872   -3.7634   13.8306 H       1  UNL1        0.0000
@<TRIPOS>BOND
     1    53    52    1
     2    63    62    1
     3    65    64    1
     4    51    50    1
     5    52    50    2
     6    52    54    1
     7     7     6    1
     8    62    64   ar
     9    62    60   ar
    10     5     4    1
    11    64    66   ar
    12    55    54    1
    13    50    49    1
    14    61    60    1
    15    54    56    2
    16    60    59   ar
    17     6     4   ar
    18     6     8   ar
    19     4     3   ar
    20    66    67    1
    21    66    68   ar
    22    59    68   ar
    23    59    48    1
    24    68    69    1
    25    49    48    2
    26    49    58    1
    27     9     8    1
    28    56    58    1
    29    56    57    1
    30     8    10   ar
    31     3     2    1
    32     3    12   ar
    33     2     1    1
    34    48    47    1
    35    58     1    1
    36    10    12   ar
    37    10    11    1
    38    12    13    1
    39    47     1    1
    40    47    46    1
    41    45    44    1
    42     1    13    1
    43     1    36    1
    44     1    24    1
    45    13    14    1
    46    46    44   ar
    47    46    37   ar
    48    44    42   ar
    49    36    37    1
    50    37    38   ar
    51    42    43    1
    52    42    40   ar
    53    14    25    1
    54    14    15    2
    55    24    22    1
    56    24    15    1
    57    23    22    1
    58    27    26    1
    59    38    40   ar
    60    38    39    1
    61    40    41    1
    62    25    26   ar
    63    25    34   ar
    64    22    20    2
    65    15    16    1
    66    26    28   ar
    67    35    34    1
    68    34    32   ar
    69    28    29    1
    70    28    30   ar
    71    32    30   ar
    72    32    33    1
    73    30    31    1
    74    20    21    1
    75    20    18    1
    76    16    17    1
    77    16    18    2
    78    18    19    1
