@<TRIPOS>MOLECULE
CSD_code = SUXZUH | q = 1 | S = 0 | Stoichiometry = C38H26Cl2CoN6O2(1+) | MND = 6
 75 84 0 0 0
SMALL
GASTEIGER

@<TRIPOS>ATOM
      1 CO          9.4680   11.6978    7.8381 Co.oh   1  UNL1        0.0000
      2 CL         15.7281   16.6985   10.5735 Cl      1  UNL1        0.0000
      3 C           7.0514   10.2070    7.1105 C.3     1  UNL1        0.0000
      4 H           7.6996    9.5327    6.5672 H       1  UNL1        0.0000
      5 CL         11.1558    5.3515   13.1815 Cl      1  UNL1        0.0000
      6 C           5.6842    9.9981    7.1265 C.2     1  UNL1        0.0000
      7 H           5.2638    9.1571    6.6007 H       1  UNL1        0.0000
      8 C           4.8790   10.8930    7.8201 C.2     1  UNL1        0.0000
      9 H           3.8075   10.7696    7.8357 H       1  UNL1        0.0000
     10 C           5.4732   11.9456    8.4876 C.2     1  UNL1        0.0000
     11 H           4.8835   12.6719    9.0229 H       1  UNL1        0.0000
     12 C           6.8629   12.0804    8.4605 C.2     1  UNL1        0.0000
     13 C           7.6015   13.1373    9.1221 C.3     1  UNL1        0.0000
     14 C           7.0151   14.1012   10.0563 C.ar    1  UNL1        0.0000
     15 C           6.1363   13.6773   11.0543 C.ar    1  UNL1        0.0000
     16 H           5.9007   12.6280   11.1530 H       1  UNL1        0.0000
     17 C           5.6082   14.5904   11.9474 C.ar    1  UNL1        0.0000
     18 H           4.9358   14.2531   12.7213 H       1  UNL1        0.0000
     19 C           5.9445   15.9316   11.8559 C.ar    1  UNL1        0.0000
     20 H           5.5267   16.6416   12.5526 H       1  UNL1        0.0000
     21 C           6.8274   16.3562   10.8762 C.ar    1  UNL1        0.0000
     22 H           7.0981   17.3986   10.8080 H       1  UNL1        0.0000
     23 C           7.3674   15.4486    9.9850 C.ar    1  UNL1        0.0000
     24 H           8.0582   15.7795    9.2254 H       1  UNL1        0.0000
     25 C          10.9932   13.5312    8.8706 C.2     1  UNL1        0.0000
     26 C          12.1525   14.3103    9.2943 C.ar    1  UNL1        0.0000
     27 C          11.9900   15.4366   10.1050 C.ar    1  UNL1        0.0000
     28 H          10.9972   15.7151   10.4196 H       1  UNL1        0.0000
     29 C          13.0887   16.1704   10.4978 C.ar    1  UNL1        0.0000
     30 H          12.9727   17.0404   11.1244 H       1  UNL1        0.0000
     31 C          14.3598   15.7827   10.0844 C.ar    1  UNL1        0.0000
     32 C          14.5343   14.6606    9.2812 C.ar    1  UNL1        0.0000
     33 H          15.5260   14.3709    8.9720 H       1  UNL1        0.0000
     34 C          13.4336   13.9286    8.8898 C.ar    1  UNL1        0.0000
     35 H          13.5478   13.0535    8.2686 H       1  UNL1        0.0000
     36 C          11.9489    8.4414    5.3766 C.ar    1  UNL1        0.0000
     37 H          12.4017    8.6857    6.3243 H       1  UNL1        0.0000
     38 C          12.4292    7.3888    4.6207 C.ar    1  UNL1        0.0000
     39 H          13.2621    6.8064    4.9836 H       1  UNL1        0.0000
     40 C          11.8457    7.0800    3.4025 C.ar    1  UNL1        0.0000
     41 H          12.2216    6.2567    2.8150 H       1  UNL1        0.0000
     42 C          10.7715    7.8250    2.9424 C.ar    1  UNL1        0.0000
     43 H          10.3045    7.5773    2.0014 H       1  UNL1        0.0000
     44 C          10.2900    8.8848    3.6875 C.ar    1  UNL1        0.0000
     45 H           9.4321    9.4424    3.3393 H       1  UNL1        0.0000
     46 C          10.8825    9.2086    4.9093 C.ar    1  UNL1        0.0000
     47 C          10.3635   10.3152    5.7170 C.2     1  UNL1        0.0000
     48 C          10.0178   11.6211    5.1927 C.2     1  UNL1        0.0000
     49 C          10.2903   12.0502    3.8920 C.2     1  UNL1        0.0000
     50 H          10.7825   11.3787    3.2074 H       1  UNL1        0.0000
     51 C           9.9512   13.3343    3.5144 C.2     1  UNL1        0.0000
     52 H          10.1589   13.6839    2.5154 H       1  UNL1        0.0000
     53 C           9.3474   14.1706    4.4452 C.2     1  UNL1        0.0000
     54 H           9.0630   15.1782    4.1916 H       1  UNL1        0.0000
     55 C           9.1322   13.6944    5.7257 C.2     1  UNL1        0.0000
     56 H           8.6848   14.3305    6.4774 H       1  UNL1        0.0000
     57 C          10.1435    9.4921    9.0372 C.2     1  UNL1        0.0000
     58 C          10.3898    8.4699   10.0493 C.ar    1  UNL1        0.0000
     59 C          10.1554    8.7549   11.3964 C.ar    1  UNL1        0.0000
     60 H           9.7936    9.7345   11.6693 H       1  UNL1        0.0000
     61 C          10.3904    7.7987   12.3612 C.ar    1  UNL1        0.0000
     62 H          10.2139    8.0136   13.4031 H       1  UNL1        0.0000
     63 C          10.8625    6.5462   11.9830 C.ar    1  UNL1        0.0000
     64 C          11.1006    6.2505   10.6439 C.ar    1  UNL1        0.0000
     65 H          11.4679    5.2745   10.3692 H       1  UNL1        0.0000
     66 C          10.8657    7.2087    9.6814 C.ar    1  UNL1        0.0000
     67 H          11.0434    7.0007    8.6385 H       1  UNL1        0.0000
     68 N           7.6321   11.2182    7.7490 N.pl3   1  UNL1        0.0000
     69 N           8.8650   13.1117    8.7950 N.pl3   1  UNL1        0.0000
     70 N           9.7886   13.9381    9.2510 N.2     1  UNL1        0.0000
     71 N           9.4574   12.4609    6.0992 N.pl3   1  UNL1        0.0000
     72 N          10.1593   10.2492    7.0049 N.pl3   1  UNL1        0.0000
     73 N          10.4274    9.2086    7.7709 N.2     1  UNL1        0.0000
     74 O          11.1464   12.4893    8.1445 O.2     1  UNL1        0.0000
     75 O           9.6659   10.6292    9.3724 O.2     1  UNL1        0.0000
@<TRIPOS>BOND
     1    43    42    1
     2    52    51    1
     3    41    40    1
     4    42    40   ar
     5    42    44   ar
     6    50    49    1
     7    45    44    1
     8    40    38   ar
     9    51    49    2
    10    51    53    1
    11    44    46   ar
    12    49    48    1
    13    54    53    1
    14    53    55    2
    15    38    39    1
    16    38    36   ar
    17    46    36   ar
    18    46    47    1
    19    48    47    2
    20    48    71    1
    21    36    37    1
    22    47    72    1
    23    55    71    1
    24    55    56    1
    25    71     1    1
    26     4     3    1
    27     7     6    1
    28    72    73    1
    29    72     1    1
    30     3     6    1
    31     3    68    1
    32     6     8    2
    33    68     1    1
    34    68    12    1
    35    73    57    2
    36     8     9    1
    37     8    10    1
    38     1    74    1
    39     1    69    1
    40     1    75    1
    41    74    25    1
    42    35    34    1
    43    12    10    2
    44    12    13    1
    45    10    11    1
    46    67    66    1
    47    69    13    1
    48    69    70    1
    49    25    70    2
    50    25    26    1
    51    34    32   ar
    52    34    26   ar
    53    33    32    1
    54    57    75    1
    55    57    58    1
    56    13    14    1
    57    24    23    1
    58    32    31   ar
    59    26    27   ar
    60    66    58   ar
    61    66    64   ar
    62    23    14   ar
    63    23    21   ar
    64    58    59   ar
    65    14    15   ar
    66    31    29   ar
    67    31     2    1
    68    27    28    1
    69    27    29   ar
    70    65    64    1
    71    29    30    1
    72    64    63   ar
    73    22    21    1
    74    21    19   ar
    75    15    16    1
    76    15    17   ar
    77    59    60    1
    78    59    61   ar
    79    19    17   ar
    80    19    20    1
    81    17    18    1
    82    63    61   ar
    83    63     5    1
    84    61    62    1
