@<TRIPOS>MOLECULE
CSD_code = TABVAU | q = 1 | S = 0 | Stoichiometry = C10H26CoN4S2(1+) | MND = 6
 43 46 0 0 0
SMALL
GASTEIGER

@<TRIPOS>ATOM
      1 CO          2.5137    2.3098   10.5673 Co.oh   1  UNL1        0.0000
      2 S           1.1390    1.2051    9.1577 S.3     1  UNL1        0.0000
      3 S           1.4122    1.4041   12.3175 S.3     1  UNL1        0.0000
      4 N           3.6999    0.6801   10.5428 N.4     1  UNL1        0.0000
      5 H           3.3293    0.2166   11.3786 H       1  UNL1        0.0000
      6 N           3.7944    3.2748   11.9461 N.4     1  UNL1        0.0000
      7 H           3.6528    4.2826   11.9357 H       1  UNL1        0.0000
      8 H           3.4032    2.9342   12.8288 H       1  UNL1        0.0000
      9 N           1.1683    3.8103   10.6128 N.4     1  UNL1        0.0000
     10 H           0.5118    3.4396    9.9184 H       1  UNL1        0.0000
     11 N           3.4662    3.1579    8.8799 N.4     1  UNL1        0.0000
     12 H           4.4155    2.8055    8.7780 H       1  UNL1        0.0000
     13 H           2.9157    2.7356    8.1271 H       1  UNL1        0.0000
     14 C           1.8992   -0.4228    9.3212 C.3     1  UNL1        0.0000
     15 H           1.4958   -0.9056   10.2130 H       1  UNL1        0.0000
     16 H           1.6269   -1.0004    8.4386 H       1  UNL1        0.0000
     17 C           3.3990   -0.2333    9.4244 C.3     1  UNL1        0.0000
     18 H           3.8930   -1.2010    9.5828 H       1  UNL1        0.0000
     19 H           3.7836    0.2013    8.4970 H       1  UNL1        0.0000
     20 C           5.1506    0.7815   10.7454 C.3     1  UNL1        0.0000
     21 H           5.6008    1.2818    9.8832 H       1  UNL1        0.0000
     22 H           5.5731   -0.2300   10.7945 H       1  UNL1        0.0000
     23 C           5.5213    1.5193   12.0269 C.3     1  UNL1        0.0000
     24 H           6.5865    1.3756   12.2080 H       1  UNL1        0.0000
     25 H           4.9771    1.0845   12.8677 H       1  UNL1        0.0000
     26 C           5.2377    3.0151   11.9618 C.3     1  UNL1        0.0000
     27 H           5.7050    3.4996   12.8277 H       1  UNL1        0.0000
     28 H           5.6833    3.4395   11.0584 H       1  UNL1        0.0000
     29 C          -0.0438    2.4673   12.2496 C.3     1  UNL1        0.0000
     30 H          -0.7347    2.0613   11.5087 H       1  UNL1        0.0000
     31 H          -0.5099    2.4454   13.2340 H       1  UNL1        0.0000
     32 C           0.4100    3.8641   11.8769 C.3     1  UNL1        0.0000
     33 H          -0.4578    4.5281   11.7695 H       1  UNL1        0.0000
     34 H           1.0561    4.2672   12.6623 H       1  UNL1        0.0000
     35 C           1.5113    5.1654   10.1632 C.3     1  UNL1        0.0000
     36 H           2.2228    5.6089   10.8657 H       1  UNL1        0.0000
     37 H           0.6054    5.7843   10.1800 H       1  UNL1        0.0000
     38 C           2.0868    5.1953    8.7519 C.3     1  UNL1        0.0000
     39 H           1.4237    4.6503    8.0768 H       1  UNL1        0.0000
     40 H           2.1229    6.2327    8.4195 H       1  UNL1        0.0000
     41 C           3.4902    4.6082    8.6632 C.3     1  UNL1        0.0000
     42 H           3.9072    4.8415    7.6760 H       1  UNL1        0.0000
     43 H           4.1343    5.0680    9.4171 H       1  UNL1        0.0000
@<TRIPOS>BOND
     1    42    41    1
     2    39    38    1
     3    13    11    1
     4    40    38    1
     5    16    14    1
     6    19    17    1
     7    41    38    1
     8    41    11    1
     9    41    43    1
    10    38    35    1
    11    12    11    1
    12    11     1    1
    13     2    14    1
    14     2     1    1
    15    14    17    1
    16    14    15    1
    17    17    18    1
    18    17     4    1
    19    21    20    1
    20    10     9    1
    21    35    37    1
    22    35     9    1
    23    35    36    1
    24     4     1    1
    25     4    20    1
    26     4     5    1
    27     1     9    1
    28     1     6    1
    29     1     3    1
    30     9    32    1
    31    20    22    1
    32    20    23    1
    33    28    26    1
    34    30    29    1
    35    33    32    1
    36    32    29    1
    37    32    34    1
    38     7     6    1
    39     6    26    1
    40     6     8    1
    41    26    23    1
    42    26    27    1
    43    23    24    1
    44    23    25    1
    45    29     3    1
    46    29    31    1
