@<TRIPOS>MOLECULE
CSD_code = TELSEL | q = 0 | S = 0 | Stoichiometry = C28H49CoP2 | MND = 7
 80 81 0 0 0
SMALL
GASTEIGER

@<TRIPOS>ATOM
      1 CO          5.2019    7.9573    3.5484 Co.oh   1  UNL1        0.0000
      2 C           3.9967    8.0923    1.8581 C.3     1  UNL1        0.0000
      3 H           4.1268    8.7750    1.0258 H       1  UNL1        0.0000
      4 H           3.8296    7.0698    1.5380 H       1  UNL1        0.0000
      5 C           3.3530    8.5599    3.0162 C.3     1  UNL1        0.0000
      6 C           3.2459    7.6345    4.0750 C.3     1  UNL1        0.0000
      7 H           3.0219    6.6001    3.8400 H       1  UNL1        0.0000
      8 H           2.7734    7.9660    4.9940 H       1  UNL1        0.0000
      9 C           2.9222    9.9938    3.1576 C.3     1  UNL1        0.0000
     10 H           3.5767   10.6648    2.6051 H       1  UNL1        0.0000
     11 H           2.8986   10.3023    4.1997 H       1  UNL1        0.0000
     12 H           1.9136   10.0939    2.7507 H       1  UNL1        0.0000
     13 P           5.8726    5.7453    3.2126 P.3     1  UNL1        0.0000
     14 H           6.8826    5.2436    4.0343 H       1  UNL1        0.0000
     15 P           7.0040    8.8768    2.6379 P.3     1  UNL1        0.0000
     16 C           5.5468    9.1135    5.1870 C.3     1  UNL1        0.0000
     17 H           6.0832   10.0230    4.9431 H       1  UNL1        0.0000
     18 H           4.6765    9.2949    5.8059 H       1  UNL1        0.0000
     19 C           6.2396    7.9093    5.3760 C.3     1  UNL1        0.0000
     20 C           7.6605    7.7933    5.0275 C.2     1  UNL1        0.0000
     21 C           8.1900    8.8137    4.0568 C.3     1  UNL1        0.0000
     22 H           9.1997    8.5638    3.7349 H       1  UNL1        0.0000
     23 H           8.2058    9.7970    4.5367 H       1  UNL1        0.0000
     24 C           5.7040    6.9215    6.3884 C.3     1  UNL1        0.0000
     25 H           6.2310    7.0519    7.3353 H       1  UNL1        0.0000
     26 H           5.8415    5.8915    6.0614 H       1  UNL1        0.0000
     27 H           4.6447    7.0879    6.5589 H       1  UNL1        0.0000
     28 C           8.4699    6.8414    5.5008 C.2     1  UNL1        0.0000
     29 H           8.1533    6.1017    6.2132 H       1  UNL1        0.0000
     30 H           9.5039    6.7885    5.2010 H       1  UNL1        0.0000
     31 C           6.7556    5.3686    1.6182 C.3     1  UNL1        0.0000
     32 H           6.6255    4.3173    1.3542 H       1  UNL1        0.0000
     33 H           6.2955    5.9811    0.8394 H       1  UNL1        0.0000
     34 C           8.2150    5.6683    1.7844 C.2     1  UNL1        0.0000
     35 C           8.7486    6.8819    1.6195 C.2     1  UNL1        0.0000
     36 C           7.9423    8.0843    1.2310 C.3     1  UNL1        0.0000
     37 H           7.1755    7.8226    0.4954 H       1  UNL1        0.0000
     38 H           8.5956    8.8340    0.7818 H       1  UNL1        0.0000
     39 C           9.0308    4.4632    2.1560 C.3     1  UNL1        0.0000
     40 H           9.2411    3.8644    1.2680 H       1  UNL1        0.0000
     41 H           8.4732    3.8411    2.8548 H       1  UNL1        0.0000
     42 H           9.9765    4.7289    2.6166 H       1  UNL1        0.0000
     43 C          10.2333    7.1108    1.7580 C.3     1  UNL1        0.0000
     44 H          10.5939    6.8065    2.7401 H       1  UNL1        0.0000
     45 H          10.4829    8.1596    1.6182 H       1  UNL1        0.0000
     46 H          10.7790    6.5322    1.0121 H       1  UNL1        0.0000
     47 C           4.7562    4.2588    3.4340 C.3     1  UNL1        0.0000
     48 H           4.1892    4.4820    4.3487 H       1  UNL1        0.0000
     49 C           5.5177    2.9534    3.6566 C.3     1  UNL1        0.0000
     50 H           6.1108    2.7076    2.7726 H       1  UNL1        0.0000
     51 H           6.2024    3.0622    4.5020 H       1  UNL1        0.0000
     52 C           4.5440    1.8090    3.9285 C.3     1  UNL1        0.0000
     53 H           5.0985    0.8791    4.0749 H       1  UNL1        0.0000
     54 H           3.9897    2.0158    4.8472 H       1  UNL1        0.0000
     55 C           3.5625    1.6551    2.7710 C.3     1  UNL1        0.0000
     56 H           4.1110    1.3974    1.8615 H       1  UNL1        0.0000
     57 H           2.8634    0.8428    2.9804 H       1  UNL1        0.0000
     58 C           2.7984    2.9565    2.5496 C.3     1  UNL1        0.0000
     59 H           2.2050    3.1829    3.4389 H       1  UNL1        0.0000
     60 H           2.1105    2.8478    1.7080 H       1  UNL1        0.0000
     61 C           3.7659    4.1066    2.2810 C.3     1  UNL1        0.0000
     62 H           3.2024    5.0324    2.1468 H       1  UNL1        0.0000
     63 H           4.3081    3.9096    1.3525 H       1  UNL1        0.0000
     64 C           7.1147   10.6842    2.1574 C.3     1  UNL1        0.0000
     65 H           6.5866   11.2037    2.9692 H       1  UNL1        0.0000
     66 C           8.5223   11.2714    2.0530 C.3     1  UNL1        0.0000
     67 H           9.0873   11.0987    2.9704 H       1  UNL1        0.0000
     68 H           9.0685   10.8047    1.2306 H       1  UNL1        0.0000
     69 C           8.4387   12.7737    1.7848 C.3     1  UNL1        0.0000
     70 H           9.4460   13.1911    1.7128 H       1  UNL1        0.0000
     71 H           7.9334   13.2644    2.6203 H       1  UNL1        0.0000
     72 C           7.6687   13.0477    0.4967 C.3     1  UNL1        0.0000
     73 H           7.6015   14.1240    0.3245 H       1  UNL1        0.0000
     74 H           8.2059   12.6076   -0.3471 H       1  UNL1        0.0000
     75 C           6.2706   12.4429    0.5768 C.3     1  UNL1        0.0000
     76 H           5.7353   12.6153   -0.3597 H       1  UNL1        0.0000
     77 H           5.7101   12.9330    1.3769 H       1  UNL1        0.0000
     78 C           6.3516   10.9452    0.8604 C.3     1  UNL1        0.0000
     79 H           6.8556   10.4475    0.0281 H       1  UNL1        0.0000
     80 H           5.3462   10.5301    0.9393 H       1  UNL1        0.0000
@<TRIPOS>BOND
     1    76    75    1
     2    74    72    1
     3    79    78    1
     4    73    72    1
     5    37    36    1
     6    72    75    1
     7    72    69    1
     8    75    78    1
     9    75    77    1
    10    38    36    1
    11    33    31    1
    12    78    80    1
    13    78    64    1
    14    46    43    1
    15     3     2    1
    16    68    66    1
    17    36    35    1
    18    36    15    1
    19    40    39    1
    20    63    61    1
    21    32    31    1
    22     4     2    1
    23    45    43    1
    24    31    34    1
    25    31    13    1
    26    35    43    1
    27    35    34    2
    28    60    58    1
    29    70    69    1
    30    43    44    1
    31    34    39    1
    32    69    66    1
    33    69    71    1
    34     2     5    1
    35    56    55    1
    36    66    64    1
    37    66    67    1
    38    62    61    1
    39    39    42    1
    40    39    41    1
    41    64    15    1
    42    64    65    1
    43    61    58    1
    44    61    47    1
    45    58    55    1
    46    58    59    1
    47    10     9    1
    48    15    21    1
    49    12     9    1
    50    55    57    1
    51    55    52    1
    52    50    49    1
    53     5     9    1
    54     5     1    1
    55     5     6    1
    56     9    11    1
    57    13    47    1
    58    13    14    1
    59    47    49    1
    60    47    48    1
    61     1    16    1
    62    49    52    1
    63    49    51    1
    64    22    21    1
    65     7     6    1
    66    52    53    1
    67    52    54    1
    68    21    23    1
    69    21    20    1
    70     6     8    1
    71    17    16    1
    72    20    19    1
    73    20    28    2
    74    16    19    1
    75    16    18    1
    76    30    28    1
    77    19    24    1
    78    28    29    1
    79    26    24    1
    80    24    27    1
    81    24    25    1
