@<TRIPOS>MOLECULE
CSD_code = TENOCO | q = 0 | S = 0 | Stoichiometry = C4H13CoN6O6 | MND = 6
 30 31 0 0 0
SMALL
GASTEIGER

@<TRIPOS>ATOM
      1 CO          1.3230    2.6189    1.2730 Co.oh   1  UNL1        0.0000
      2 N           2.6486    3.3554    2.4282 N.pl3   1  UNL1        0.0000
      3 N           0.0297    1.9125    0.2065 N.pl3   1  UNL1        0.0000
      4 N           0.9203    4.2625    0.8187 N.pl3   1  UNL1        0.0000
      5 N           2.8304    2.2560   -0.1144 N.4     1  UNL1        0.0000
      6 N           1.8509    0.6442    1.8531 N.4     1  UNL1        0.0000
      7 N           0.0428    2.3906    2.9069 N.4     1  UNL1        0.0000
      8 O           3.7374    3.6908    1.9601 O.2     1  UNL1        0.0000
      9 O           2.4069    3.4655    3.6297 O.2     1  UNL1        0.0000
     10 O           0.2769    0.9203   -0.4685 O.2     1  UNL1        0.0000
     11 O          -1.0724    2.4310    0.2687 O.2     1  UNL1        0.0000
     12 O           1.4027    4.6439   -0.2169 O.2     1  UNL1        0.0000
     13 O           0.2063    4.8553    1.5806 O.2     1  UNL1        0.0000
     14 C           3.3363    0.8790   -0.0068 C.3     1  UNL1        0.0000
     15 C           3.2389    0.4241    1.4533 C.3     1  UNL1        0.0000
     16 C           1.4849    0.4558    3.2540 C.3     1  UNL1        0.0000
     17 C           0.0637    1.0101    3.4090 C.3     1  UNL1        0.0000
     18 H           2.6077    2.4714   -1.0845 H       1  UNL1        0.0000
     19 H           3.5642    2.9114    0.1814 H       1  UNL1        0.0000
     20 H           1.2787    0.0168    1.2836 H       1  UNL1        0.0000
     21 H           0.4592    3.0062    3.6141 H       1  UNL1        0.0000
     22 H          -0.9134    2.7078    2.7486 H       1  UNL1        0.0000
     23 H           4.3689    0.8018   -0.3610 H       1  UNL1        0.0000
     24 H           2.7013    0.2338   -0.6191 H       1  UNL1        0.0000
     25 H           3.8975    1.0284    2.0816 H       1  UNL1        0.0000
     26 H           3.5397   -0.6273    1.5476 H       1  UNL1        0.0000
     27 H           2.1696    1.0312    3.8818 H       1  UNL1        0.0000
     28 H           1.5256   -0.5963    3.5628 H       1  UNL1        0.0000
     29 H          -0.6259    0.4074    2.8106 H       1  UNL1        0.0000
     30 H          -0.2493    0.9563    4.4569 H       1  UNL1        0.0000
@<TRIPOS>BOND
     1    18     5    1
     2    24    14    1
     3    10     3    2
     4    23    14    1
     5    12     4    2
     6     5    14    1
     7     5    19    1
     8     5     1    1
     9    14    15    1
    10     3    11    2
    11     3     1    1
    12     4     1    1
    13     4    13    2
    14     1     6    1
    15     1     2    1
    16     1     7    1
    17    20     6    1
    18    15    26    1
    19    15     6    1
    20    15    25    1
    21     6    16    1
    22     8     2    2
    23     2     9    2
    24    22     7    1
    25    29    17    1
    26     7    17    1
    27     7    21    1
    28    16    17    1
    29    16    28    1
    30    16    27    1
    31    17    30    1
