@<TRIPOS>MOLECULE
CSD_code = TEXSAR | q = 1 | S = 0 | Stoichiometry = C30H30CoN8S2(1+) | MND = 6
 71 78 0 0 0
SMALL
GASTEIGER

@<TRIPOS>ATOM
      1 CO          1.2578   10.0306    0.6809 Co.oh   1  UNL1        0.0000
      2 S           2.1174    9.2689    2.6560 S.3     1  UNL1        0.0000
      3 S          -0.7473    9.0592    1.1669 S.3     1  UNL1        0.0000
      4 N          -0.6591   11.6128    1.9407 N.2     1  UNL1        0.0000
      5 N           2.6240    7.5984    0.6309 N.2     1  UNL1        0.0000
      6 N           0.5512   11.5420    1.4493 N.pl3   1  UNL1        0.0000
      7 N           1.9502    8.4923   -0.0484 N.pl3   1  UNL1        0.0000
      8 N           2.8438   11.1060    0.4333 N.pl3   1  UNL1        0.0000
      9 N           0.6282   10.3903   -1.1076 N.pl3   1  UNL1        0.0000
     10 N          -2.6212   10.5327    2.3421 N.pl3   1  UNL1        0.0000
     11 H          -2.8929   11.3806    2.8210 H       1  UNL1        0.0000
     12 N           3.3971    6.9727    2.7001 N.pl3   1  UNL1        0.0000
     13 H           3.5259    7.2314    3.6679 H       1  UNL1        0.0000
     14 C           2.7647    7.8416    1.9216 C.2     1  UNL1        0.0000
     15 C          -1.3789   10.5039    1.8723 C.2     1  UNL1        0.0000
     16 C           4.0900    5.8067    2.2036 C.3     1  UNL1        0.0000
     17 H           4.0471    5.0278    2.9669 H       1  UNL1        0.0000
     18 H           3.5694    5.4638    1.3083 H       1  UNL1        0.0000
     19 C          -3.4656    9.3723    2.4807 C.3     1  UNL1        0.0000
     20 H          -3.2821    8.7100    1.6305 H       1  UNL1        0.0000
     21 H          -4.5065    9.6991    2.4547 H       1  UNL1        0.0000
     22 C          -3.1851    8.6113    3.7873 C.3     1  UNL1        0.0000
     23 H          -3.3975    9.2614    4.6378 H       1  UNL1        0.0000
     24 H          -2.1278    8.3398    3.8118 H       1  UNL1        0.0000
     25 C           5.5541    6.1228    1.8591 C.3     1  UNL1        0.0000
     26 H           6.0707    6.4713    2.7553 H       1  UNL1        0.0000
     27 H           5.5697    6.9223    1.1154 H       1  UNL1        0.0000
     28 C          -4.0364    7.3739    3.8476 C.ar    1  UNL1        0.0000
     29 C           6.2304    4.8956    1.3138 C.ar    1  UNL1        0.0000
     30 C          -5.2491    7.3779    4.5227 C.ar    1  UNL1        0.0000
     31 H          -5.5730    8.2714    5.0374 H       1  UNL1        0.0000
     32 C           6.9736    4.0669    2.1429 C.ar    1  UNL1        0.0000
     33 H           7.0908    4.3196    3.1871 H       1  UNL1        0.0000
     34 C          -6.0404    6.2428    4.5504 C.ar    1  UNL1        0.0000
     35 H          -6.9791    6.2554    5.0833 H       1  UNL1        0.0000
     36 C           7.5736    2.9256    1.6401 C.ar    1  UNL1        0.0000
     37 H           8.1537    2.2918    2.2935 H       1  UNL1        0.0000
     38 C          -5.6285    5.0939    3.8974 C.ar    1  UNL1        0.0000
     39 H          -6.2450    4.2083    3.9197 H       1  UNL1        0.0000
     40 C           7.4316    2.5986    0.3027 C.ar    1  UNL1        0.0000
     41 H           7.9007    1.7097   -0.0904 H       1  UNL1        0.0000
     42 C          -4.4220    5.0835    3.2178 C.ar    1  UNL1        0.0000
     43 H          -4.0957    4.1889    2.7086 H       1  UNL1        0.0000
     44 C           6.6877    3.4173   -0.5303 C.ar    1  UNL1        0.0000
     45 H           6.5757    3.1671   -1.5747 H       1  UNL1        0.0000
     46 C          -3.6317    6.2183    3.1917 C.ar    1  UNL1        0.0000
     47 H          -2.6882    6.2084    2.6639 H       1  UNL1        0.0000
     48 C           6.0894    4.5579   -0.0262 C.ar    1  UNL1        0.0000
     49 H           5.5120    5.1981   -0.6784 H       1  UNL1        0.0000
     50 C           1.3593   12.5604    1.5026 C.2     1  UNL1        0.0000
     51 H           1.0640   13.4926    1.9631 H       1  UNL1        0.0000
     52 C           1.7147    8.3319   -1.3174 C.2     1  UNL1        0.0000
     53 H           2.0476    7.4511   -1.8485 H       1  UNL1        0.0000
     54 C           2.6514   12.3460    0.9416 C.2     1  UNL1        0.0000
     55 C           0.9738    9.3792   -1.9391 C.2     1  UNL1        0.0000
     56 C           3.6663   13.3091    0.9132 C.2     1  UNL1        0.0000
     57 H           3.4765   14.2846    1.3304 H       1  UNL1        0.0000
     58 C           0.6073    9.3899   -3.2891 C.2     1  UNL1        0.0000
     59 H           0.8972    8.5650   -3.9194 H       1  UNL1        0.0000
     60 C           4.8861   12.9847    0.3605 C.2     1  UNL1        0.0000
     61 H           5.6872   13.7064    0.3323 H       1  UNL1        0.0000
     62 C          -0.1221   10.4515   -3.7795 C.2     1  UNL1        0.0000
     63 H          -0.4221   10.4818   -4.8151 H       1  UNL1        0.0000
     64 C           5.0685   11.7065   -0.1587 C.2     1  UNL1        0.0000
     65 H           6.0071   11.4113   -0.5974 H       1  UNL1        0.0000
     66 C          -0.4687   11.4837   -2.9132 C.2     1  UNL1        0.0000
     67 H          -1.0399   12.3307   -3.2549 H       1  UNL1        0.0000
     68 C           4.0227   10.8047   -0.1017 C.2     1  UNL1        0.0000
     69 H           4.1445    9.8049   -0.4959 H       1  UNL1        0.0000
     70 C          -0.0731   11.4109   -1.5907 C.2     1  UNL1        0.0000
     71 H          -0.3375   12.1996   -0.8997 H       1  UNL1        0.0000
@<TRIPOS>BOND
     1    63    62    1
     2    59    58    1
     3    62    58    2
     4    62    66    1
     5    58    55    1
     6    67    66    1
     7    66    70    2
     8    55    52    2
     9    55     9    1
    10    53    52    1
    11    70     9    1
    12    70    71    1
    13    45    44    1
    14    52     7    1
    15     9     1    1
    16    49    48    1
    17    65    64    1
    18    44    48   ar
    19    44    40   ar
    20    69    68    1
    21    64    68    2
    22    64    60    1
    23    68     8    1
    24    41    40    1
    25     7     5    1
    26     7     1    1
    27    48    29   ar
    28    40    36   ar
    29    61    60    1
    30    60    56    2
    31     8     1    1
    32     8    54    1
    33     5    14    2
    34     1     3    1
    35     1     6    1
    36     1     2    1
    37    56    54    1
    38    56    57    1
    39    54    50    2
    40    27    25    1
    41     3    15    1
    42    18    16    1
    43    29    25    1
    44    29    32   ar
    45     6    50    1
    46     6     4    1
    47    50    51    1
    48    20    19    1
    49    36    32   ar
    50    36    37    1
    51    25    16    1
    52    25    26    1
    53    15     4    2
    54    15    10    1
    55    14     2    1
    56    14    12    1
    57    32    33    1
    58    16    12    1
    59    16    17    1
    60    10    19    1
    61    10    11    1
    62    21    19    1
    63    19    22    1
    64    47    46    1
    65    12    13    1
    66    43    42    1
    67    46    42   ar
    68    46    28   ar
    69    42    38   ar
    70    22    24    1
    71    22    28    1
    72    22    23    1
    73    28    30   ar
    74    38    39    1
    75    38    34   ar
    76    30    34   ar
    77    30    31    1
    78    34    35    1
