@<TRIPOS>MOLECULE
CSD_code = TOSZOQ | q = 0 | S = 0 | Stoichiometry = C35H33CoOP2S2 | MND = 5
 74 81 0 0 0
SMALL
GASTEIGER

@<TRIPOS>ATOM
      1 CO          0.0584    4.1715   11.6739 Co.oh   1  UNL1        0.0000
      2 S           1.6654    2.8343   10.7051 S.3     1  UNL1        0.0000
      3 S          -1.8324    5.0628   12.2843 S.3     1  UNL1        0.0000
      4 P           0.5659    5.7757   10.3328 P.3     1  UNL1        0.0000
      5 P           1.8690    4.2598   12.8509 P.3     1  UNL1        0.0000
      6 O          -0.3850    2.7107   12.6918 O.3     1  UNL1        0.0000
      7 C           2.3533    6.2476   10.2943 C.3     1  UNL1        0.0000
      8 H           2.5536    6.6856    9.3109 H       1  UNL1        0.0000
      9 H           2.5107    7.0219   11.0500 H       1  UNL1        0.0000
     10 C           3.4530    4.7932   12.0465 C.3     1  UNL1        0.0000
     11 H           3.8128    5.6842   12.5673 H       1  UNL1        0.0000
     12 H           4.1810    3.9890   12.1918 H       1  UNL1        0.0000
     13 C           2.8911    3.8301    9.8016 C.3     1  UNL1        0.0000
     14 H           3.7419    3.1609    9.6628 H       1  UNL1        0.0000
     15 H           2.4870    4.0882    8.8206 H       1  UNL1        0.0000
     16 C           3.3311    5.0914   10.5496 C.3     1  UNL1        0.0000
     17 C           4.7103    5.5139   10.0236 C.3     1  UNL1        0.0000
     18 H           5.4605    4.7630   10.2615 H       1  UNL1        0.0000
     19 H           5.0161    6.4579   10.4706 H       1  UNL1        0.0000
     20 H           4.6821    5.6365    8.9429 H       1  UNL1        0.0000
     21 C           0.4915    6.3536    7.5749 C.ar    1  UNL1        0.0000
     22 H           0.9519    7.3012    7.8222 H       1  UNL1        0.0000
     23 C           0.1786    6.0562    6.2622 C.ar    1  UNL1        0.0000
     24 H           0.4112    6.7650    5.4806 H       1  UNL1        0.0000
     25 C          -0.4370    4.8539    5.9470 C.ar    1  UNL1        0.0000
     26 H          -0.6773    4.6271    4.9187 H       1  UNL1        0.0000
     27 C          -0.7506    3.9499    6.9478 C.ar    1  UNL1        0.0000
     28 H          -1.2373    3.0174    6.7040 H       1  UNL1        0.0000
     29 C          -0.4407    4.2442    8.2639 C.ar    1  UNL1        0.0000
     30 H          -0.6803    3.5447    9.0590 H       1  UNL1        0.0000
     31 C           0.1914    5.4405    8.5826 C.ar    1  UNL1        0.0000
     32 C          -1.4059    7.6807    9.8805 C.ar    1  UNL1        0.0000
     33 H          -1.7751    6.9836    9.1413 H       1  UNL1        0.0000
     34 C          -2.0968    8.8510   10.1326 C.ar    1  UNL1        0.0000
     35 H          -2.9992    9.0698    9.5809 H       1  UNL1        0.0000
     36 C          -1.6413    9.7344   11.0969 C.ar    1  UNL1        0.0000
     37 H          -2.1840   10.6468   11.2956 H       1  UNL1        0.0000
     38 C          -0.4981    9.4354   11.8189 C.ar    1  UNL1        0.0000
     39 H          -0.1498   10.1107   12.5872 H       1  UNL1        0.0000
     40 C           0.1962    8.2664   11.5694 C.ar    1  UNL1        0.0000
     41 H           1.0679    8.0326   12.1652 H       1  UNL1        0.0000
     42 C          -0.2377    7.3894   10.5797 C.ar    1  UNL1        0.0000
     43 C           1.5913    2.6777   15.0773 C.ar    1  UNL1        0.0000
     44 H           0.8886    3.4403   15.3861 H       1  UNL1        0.0000
     45 C           1.8023    1.5663   15.8702 C.ar    1  UNL1        0.0000
     46 H           1.2675    1.4643   16.8032 H       1  UNL1        0.0000
     47 C           2.6884    0.5819   15.4630 C.ar    1  UNL1        0.0000
     48 H           2.8525   -0.2878   16.0824 H       1  UNL1        0.0000
     49 C           3.3506    0.7059   14.2532 C.ar    1  UNL1        0.0000
     50 H           4.0298   -0.0683   13.9267 H       1  UNL1        0.0000
     51 C           3.1347    1.8111   13.4500 C.ar    1  UNL1        0.0000
     52 H           3.6215    1.8774   12.4877 H       1  UNL1        0.0000
     53 C           2.2653    2.8113   13.8661 C.ar    1  UNL1        0.0000
     54 C           0.7161    6.3794   14.3525 C.ar    1  UNL1        0.0000
     55 H          -0.1352    6.2872   13.6891 H       1  UNL1        0.0000
     56 C           0.7153    7.3335   15.3570 C.ar    1  UNL1        0.0000
     57 H          -0.1354    7.9892   15.4704 H       1  UNL1        0.0000
     58 C           1.7988    7.4403   16.2107 C.ar    1  UNL1        0.0000
     59 H           1.8003    8.1820   16.9959 H       1  UNL1        0.0000
     60 C           2.8832    6.5877   16.0634 C.ar    1  UNL1        0.0000
     61 H           3.7262    6.6632   16.7351 H       1  UNL1        0.0000
     62 C           2.8864    5.6373   15.0612 C.ar    1  UNL1        0.0000
     63 H           3.7258    4.9618   14.9532 H       1  UNL1        0.0000
     64 C           1.8002    5.5315   14.1947 C.ar    1  UNL1        0.0000
     65 C          -2.2809    3.8500   13.4578 C.ar    1  UNL1        0.0000
     66 C          -3.3773    3.9439   14.3006 C.ar    1  UNL1        0.0000
     67 H          -4.0306    4.8012   14.2331 H       1  UNL1        0.0000
     68 C          -3.6105    2.9292   15.2065 C.ar    1  UNL1        0.0000
     69 H          -4.4624    2.9850   15.8679 H       1  UNL1        0.0000
     70 C          -2.7516    1.8340   15.2723 C.ar    1  UNL1        0.0000
     71 H          -2.9487    1.0477   15.9872 H       1  UNL1        0.0000
     72 C          -1.6564    1.7354   14.4444 C.ar    1  UNL1        0.0000
     73 H          -0.9881    0.8882   14.4825 H       1  UNL1        0.0000
     74 C          -1.4029    2.7495   13.5066 C.ar    1  UNL1        0.0000
@<TRIPOS>BOND
     1    26    25    1
     2    24    23    1
     3    25    23   ar
     4    25    27   ar
     5    23    21   ar
     6    28    27    1
     7    27    29   ar
     8    21    22    1
     9    21    31   ar
    10    29    31   ar
    11    29    30    1
    12    31     4    1
    13    15    13    1
    14    20    17    1
    15    33    32    1
    16     8     7    1
    17    35    34    1
    18    14    13    1
    19    13    16    1
    20    13     2    1
    21    32    34   ar
    22    32    42   ar
    23    17    18    1
    24    17    19    1
    25    17    16    1
    26    34    36   ar
    27     7     4    1
    28     7    16    1
    29     7     9    1
    30     4    42    1
    31     4     1    1
    32    16    10    1
    33    42    40   ar
    34     2     1    1
    35    36    37    1
    36    36    38   ar
    37    40    38   ar
    38    40    41    1
    39     1     3    1
    40     1     6    1
    41     1     5    1
    42    38    39    1
    43    10    12    1
    44    10    11    1
    45    10     5    1
    46     3    65    1
    47    52    51    1
    48     6    74    1
    49     5    53    1
    50     5    64    1
    51    51    53   ar
    52    51    49   ar
    53    65    74   ar
    54    65    66   ar
    55    74    72   ar
    56    55    54    1
    57    53    43   ar
    58    50    49    1
    59    64    54   ar
    60    64    62   ar
    61    67    66    1
    62    49    47   ar
    63    66    68   ar
    64    54    56   ar
    65    72    73    1
    66    72    70   ar
    67    63    62    1
    68    62    60   ar
    69    43    44    1
    70    43    45   ar
    71    68    70   ar
    72    68    69    1
    73    70    71    1
    74    56    57    1
    75    56    58   ar
    76    47    45   ar
    77    47    48    1
    78    45    46    1
    79    60    58   ar
    80    60    61    1
    81    58    59    1
