@<TRIPOS>MOLECULE
CSD_code = UDOVAM | q = 0 | S = 0 | Stoichiometry = C18H30CoNP2 | MND = 6
 52 52 0 0 0
SMALL
GASTEIGER

@<TRIPOS>ATOM
      1 CO          4.9708    3.4600    3.0578 Co.oh   1  UNL1        0.0000
      2 P           6.0626    2.1995    1.4993 P.3     2  UNL2        0.0000
      3 P           6.0348    3.4101    5.0625 P.3     3  UNL3        0.0000
      4 N           5.9448    5.1258    2.6848 N.pl3   1  UNL1        0.0000
      5 C           3.9416    1.8740    3.6705 C.3     1  UNL1        0.0000
      6 H           3.4257    2.0722    4.6143 H       1  UNL1        0.0000
      7 H           4.5951    1.0146    3.8397 H       1  UNL1        0.0000
      8 H           3.1800    1.5617    2.9549 H       1  UNL1        0.0000
      9 C           3.4608    4.1545    1.9671 C.3     1  UNL1        0.0000
     10 H           3.8186    4.8146    1.1800 H       1  UNL1        0.0000
     11 H           2.6882    3.4728    1.6325 H       1  UNL1        0.0000
     12 C           3.3581    4.6688    3.2815 C.3     1  UNL1        0.0000
     13 H           2.5094    4.3695    3.8904 H       1  UNL1        0.0000
     14 C           6.3019    2.9477   -0.1684 C.3     2  UNL2        0.0000
     15 H           6.8646    3.8752   -0.1057 H       2  UNL2        0.0000
     16 H           5.3173    3.1726   -0.5738 H       2  UNL2        0.0000
     17 H           6.8174    2.2538   -0.8317 H       2  UNL2        0.0000
     18 C           7.7443    1.4861    1.7809 C.3     2  UNL2        0.0000
     19 H           8.0813    0.9254    0.9100 H       2  UNL2        0.0000
     20 H           7.6899    0.8206    2.6406 H       2  UNL2        0.0000
     21 H           8.4624    2.2724    2.0039 H       2  UNL2        0.0000
     22 C           5.2274    0.6608    0.9433 C.3     2  UNL2        0.0000
     23 H           5.7815    0.1957    0.1286 H       2  UNL2        0.0000
     24 H           4.2243    0.9126    0.6080 H       2  UNL2        0.0000
     25 H           5.1489   -0.0332    1.7756 H       2  UNL2        0.0000
     26 C           5.0846    4.2286    6.4058 C.3     3  UNL3        0.0000
     27 H           5.6193    4.1691    7.3536 H       3  UNL3        0.0000
     28 H           4.1176    3.7396    6.4988 H       3  UNL3        0.0000
     29 H           4.9198    5.2717    6.1419 H       3  UNL3        0.0000
     30 C           6.4363    1.8312    5.9182 C.3     3  UNL3        0.0000
     31 H           7.1254    1.2551    5.3038 H       3  UNL3        0.0000
     32 H           5.5235    1.2564    6.0495 H       3  UNL3        0.0000
     33 H           6.8890    2.0241    6.8902 H       3  UNL3        0.0000
     34 C           7.6477    4.2714    5.3127 C.3     3  UNL3        0.0000
     35 H           7.9798    4.1667    6.3448 H       3  UNL3        0.0000
     36 H           7.5379    5.3286    5.0789 H       3  UNL3        0.0000
     37 H           8.3968    3.8440    4.6486 H       3  UNL3        0.0000
     38 C           7.1869    5.3157    2.2871 C.2     1  UNL1        0.0000
     39 H           7.7202    4.4464    1.9265 H       1  UNL1        0.0000
     40 C           7.8331    6.5540    2.3295 C.2     1  UNL1        0.0000
     41 H           8.8470    6.6348    1.9666 H       1  UNL1        0.0000
     42 C           7.1788    7.6396    2.8538 C.2     1  UNL1        0.0000
     43 H           7.6577    8.6051    2.9309 H       1  UNL1        0.0000
     44 C           5.8567    7.4752    3.3163 C.2     1  UNL1        0.0000
     45 C           5.2627    6.1982    3.1607 C.3     1  UNL1        0.0000
     46 C           3.9278    5.9698    3.5861 C.2     1  UNL1        0.0000
     47 C           3.2633    6.9809    4.2555 C.2     1  UNL1        0.0000
     48 H           2.2638    6.8062    4.6274 H       1  UNL1        0.0000
     49 C           3.8602    8.2304    4.4356 C.2     1  UNL1        0.0000
     50 H           3.3110    9.0069    4.9494 H       1  UNL1        0.0000
     51 C           5.1189    8.4909    3.9553 C.2     1  UNL1        0.0000
     52 H           5.5709    9.4642    4.0803 H       1  UNL1        0.0000
@<TRIPOS>BOND
     1    17    14    1
     2    16    14    1
     3    14    15    1
     4    14     2    1
     5    23    22    1
     6    24    22    1
     7    19    18    1
     8    22     2    1
     9    22    25    1
    10    10     9    1
    11     2    18    1
    12    11     9    1
    13    18    21    1
    14    18    20    1
    15    39    38    1
    16    41    40    1
    17     9     1    1
    18     9    12    1
    19    38    40    2
    20    38     4    1
    21    40    42    1
    22     4     1    1
    23     4    45    1
    24    42    43    1
    25    42    44    2
    26     8     5    1
    27     1     5    1
    28    45    44    1
    29    45    46    1
    30    12    46    1
    31    12    13    1
    32    44    51    1
    33    46    47    2
    34     5     7    1
    35     5     6    1
    36    51    52    1
    37    51    49    2
    38    47    49    1
    39    47    48    1
    40    49    50    1
    41    37    34    1
    42     3    34    1
    43     3    30    1
    44     3    26    1
    45    36    34    1
    46    31    30    1
    47    34    35    1
    48    30    32    1
    49    30    33    1
    50    29    26    1
    51    26    28    1
    52    26    27    1
