@<TRIPOS>MOLECULE
CSD_code = UDOVIU | q = 0 | S = 0 | Stoichiometry = C29H30CoN2P | MND = 6
 63 66 0 0 0
SMALL
GASTEIGER

@<TRIPOS>ATOM
      1 CO          5.5352    5.2484   11.6975 Co.oh   1  UNL1        0.0000
      2 P           4.0196    5.7362   13.2254 P.3     2  UNL2        0.0000
      3 N           4.3926    5.3807    9.9285 N.ar    1  UNL1        0.0000
      4 N           6.4510    6.9584   11.3158 N.pl3   1  UNL1        0.0000
      5 C           4.1159    6.4006    9.1281 C.ar    1  UNL1        0.0000
      6 H           4.4796    7.3721    9.4420 H       1  UNL1        0.0000
      7 C           3.4067    6.2764    7.9492 C.ar    1  UNL1        0.0000
      8 H           3.2186    7.1399    7.3304 H       1  UNL1        0.0000
      9 C           2.9398    5.0152    7.5907 C.ar    1  UNL1        0.0000
     10 H           2.3715    4.8792    6.6816 H       1  UNL1        0.0000
     11 C           3.2087    3.9484    8.4179 C.ar    1  UNL1        0.0000
     12 H           2.8489    2.9588    8.1828 H       1  UNL1        0.0000
     13 C           3.9566    4.1491    9.5855 C.ar    1  UNL1        0.0000
     14 C           4.2733    3.1122   10.5376 C.2     1  UNL1        0.0000
     15 C           4.9164    3.4889   11.6655 C.2     1  UNL1        0.0000
     16 H           5.1352    2.7011   12.3879 H       1  UNL1        0.0000
     17 C           3.9418    1.7011   10.2652 C.ar    1  UNL1        0.0000
     18 C           4.4060    1.0788    9.1085 C.ar    1  UNL1        0.0000
     19 H           5.0000    1.6458    8.4060 H       1  UNL1        0.0000
     20 C           4.1382   -0.2568    8.8745 C.ar    1  UNL1        0.0000
     21 H           4.5084   -0.7289    7.9754 H       1  UNL1        0.0000
     22 C           3.4029   -0.9922    9.7897 C.ar    1  UNL1        0.0000
     23 H           3.1918   -2.0354    9.6039 H       1  UNL1        0.0000
     24 C           2.9459   -0.3853   10.9473 C.ar    1  UNL1        0.0000
     25 H           2.3759   -0.9558   11.6673 H       1  UNL1        0.0000
     26 C           3.2168    0.9497   11.1851 C.ar    1  UNL1        0.0000
     27 H           2.8598    1.4234   12.0893 H       1  UNL1        0.0000
     28 C           6.3060    8.2606   11.1343 C.3     1  UNL1        0.0000
     29 H           5.5535    8.7571   11.7343 H       1  UNL1        0.0000
     30 C           7.0695    8.9719   10.2216 C.2     1  UNL1        0.0000
     31 H           6.9341   10.0366   10.1112 H       1  UNL1        0.0000
     32 C           7.9975    8.2848    9.4478 C.2     1  UNL1        0.0000
     33 H           8.5952    8.8114    8.7178 H       1  UNL1        0.0000
     34 C           8.1538    6.9233    9.6295 C.2     1  UNL1        0.0000
     35 H           8.8648    6.3538    9.0506 H       1  UNL1        0.0000
     36 C           7.3750    6.2889   10.5964 C.2     1  UNL1        0.0000
     37 C           7.3752    4.8834   10.9949 C.3     1  UNL1        0.0000
     38 C           7.3004    4.6962   12.4076 C.3     1  UNL1        0.0000
     39 H           7.7114    5.4757   13.0453 H       1  UNL1        0.0000
     40 H           7.4733    3.7008   12.7959 H       1  UNL1        0.0000
     41 C           7.6255    3.8238   10.0178 C.ar    1  UNL1        0.0000
     42 C           8.2030    2.6046   10.3786 C.ar    1  UNL1        0.0000
     43 H           8.5254    2.4457   11.3965 H       1  UNL1        0.0000
     44 C           8.3731    1.5968    9.4499 C.ar    1  UNL1        0.0000
     45 H           8.8168    0.6591    9.7534 H       1  UNL1        0.0000
     46 C           7.9815    1.7802    8.1346 C.ar    1  UNL1        0.0000
     47 H           8.1125    0.9892    7.4107 H       1  UNL1        0.0000
     48 C           7.4167    2.9880    7.7569 C.ar    1  UNL1        0.0000
     49 H           7.1033    3.1420    6.7331 H       1  UNL1        0.0000
     50 C           7.2407    3.9951    8.6837 C.ar    1  UNL1        0.0000
     51 H           6.7738    4.9217    8.3788 H       1  UNL1        0.0000
     52 C           4.1412    4.8226   14.8118 C.3     2  UNL2        0.0000
     53 H           3.3233    5.0880   15.4807 H       2  UNL2        0.0000
     54 H           5.0932    5.0586   15.2821 H       2  UNL2        0.0000
     55 H           4.1151    3.7564   14.6021 H       2  UNL2        0.0000
     56 C           3.8122    7.4487   13.8731 C.3     2  UNL2        0.0000
     57 H           3.0578    7.4786   14.6584 H       2  UNL2        0.0000
     58 H           3.5091    8.1031   13.0584 H       2  UNL2        0.0000
     59 H           4.7639    7.7964   14.2697 H       2  UNL2        0.0000
     60 C           2.2757    5.3693   12.7790 C.3     2  UNL2        0.0000
     61 H           2.1997    4.3197   12.5042 H       2  UNL2        0.0000
     62 H           1.9945    5.9693   11.9157 H       2  UNL2        0.0000
     63 H           1.6051    5.5853   13.6100 H       2  UNL2        0.0000
@<TRIPOS>BOND
     1    10     9    1
     2    49    48    1
     3     8     7    1
     4    47    46    1
     5     9     7   ar
     6     9    11   ar
     7    48    46   ar
     8    48    50   ar
     9     7     5   ar
    10    21    20    1
    11    46    44   ar
    12    12    11    1
    13    51    50    1
    14    19    18    1
    15    11    13   ar
    16    50    41   ar
    17    33    32    1
    18    20    18   ar
    19    20    22   ar
    20    35    34    1
    21    18    17   ar
    22     5     6    1
    23     5     3   ar
    24    32    34    1
    25    32    30    2
    26    44    45    1
    27    44    42   ar
    28    13     3   ar
    29    13    14    1
    30    23    22    1
    31    34    36    2
    32    22    24   ar
    33    41    42   ar
    34    41    37    1
    35    31    30    1
    36    30    28    1
    37    17    14    1
    38    17    26   ar
    39    42    43    1
    40    14    15    2
    41    36    37    1
    42    36     4    1
    43    24    26   ar
    44    24    25    1
    45    37    38    1
    46    28     4    1
    47    28    29    1
    48    26    27    1
    49     4     1    1
    50    15     1    1
    51    15    16    1
    52     1    38    1
    53    62    60    1
    54    38    40    1
    55    38    39    1
    56    61    60    1
    57    60     2    1
    58    60    63    1
    59    58    56    1
    60     2    56    1
    61     2    52    1
    62    56    59    1
    63    56    57    1
    64    55    52    1
    65    52    54    1
    66    52    53    1
