@<TRIPOS>MOLECULE
CSD_code = UHOXAQ | q = 0 | S = 0 | Stoichiometry = C24H38BCoN6O | MND = 4
 71 75 0 0 0
SMALL
GASTEIGER

@<TRIPOS>ATOM
      1 CO          3.7741    4.5016    4.7348 Co.oh   1  UNL1        0.0000
      2 O           4.6730    5.9045    4.1975 O.3     1  UNL1        0.0000
      3 H           4.9808    6.5754    4.8099 H       1  UNL1        0.0000
      4 N           2.4287    2.6371    6.3006 N.3     1  UNL1        0.0000
      5 N           2.7715    2.9097    5.0221 N.pl3   1  UNL1        0.0000
      6 N           2.3529    4.9563    7.0545 N.3     1  UNL1        0.0000
      7 N           2.4428    5.4204    5.7804 N.pl3   1  UNL1        0.0000
      8 N           4.4472    3.6269    7.2599 N.3     1  UNL1        0.0000
      9 N           5.0051    3.8295    6.0385 N.pl3   1  UNL1        0.0000
     10 C           1.1408    0.9427    7.6126 C.3     1  UNL1        0.0000
     11 H           1.9504    0.6911    8.2958 H       1  UNL1        0.0000
     12 H           0.5739    0.0436    7.3879 H       1  UNL1        0.0000
     13 H           0.4886    1.6595    8.1089 H       1  UNL1        0.0000
     14 C           1.6797    1.5137    6.3533 C.3     1  UNL1        0.0000
     15 C           1.5566    1.0698    5.0583 C.2     1  UNL1        0.0000
     16 C           2.2448    1.9573    4.2396 C.2     1  UNL1        0.0000
     17 C           2.4605    1.8330    2.7603 C.3     1  UNL1        0.0000
     18 C           1.2144    1.2005    2.1321 C.3     1  UNL1        0.0000
     19 H           1.0187    0.2324    2.5862 H       1  UNL1        0.0000
     20 H           1.3571    1.0648    1.0625 H       1  UNL1        0.0000
     21 H           0.3438    1.8328    2.2907 H       1  UNL1        0.0000
     22 C           3.6657    0.9074    2.5406 C.3     1  UNL1        0.0000
     23 H           4.5598    1.3432    2.9783 H       1  UNL1        0.0000
     24 H           3.8364    0.7532    1.4772 H       1  UNL1        0.0000
     25 H           3.4878   -0.0584    3.0077 H       1  UNL1        0.0000
     26 C           2.7265    3.1943    2.1175 C.3     1  UNL1        0.0000
     27 H           1.8172    3.7898    2.1015 H       1  UNL1        0.0000
     28 H           3.0760    3.0702    1.0947 H       1  UNL1        0.0000
     29 H           3.5019    3.7449    2.6757 H       1  UNL1        0.0000
     30 C           1.3133    5.6227    9.2278 C.3     1  UNL1        0.0000
     31 H           0.7287    4.7181    9.3884 H       1  UNL1        0.0000
     32 H           0.7487    6.4771    9.5908 H       1  UNL1        0.0000
     33 H           2.2358    5.5350    9.7989 H       1  UNL1        0.0000
     34 C           1.6080    5.8065    7.7849 C.3     1  UNL1        0.0000
     35 C           1.2104    6.8171    6.9339 C.2     1  UNL1        0.0000
     36 C           1.7220    6.5504    5.6775 C.2     1  UNL1        0.0000
     37 C           1.4597    7.3532    4.4366 C.3     1  UNL1        0.0000
     38 C           0.0921    8.0261    4.6017 C.3     1  UNL1        0.0000
     39 H          -0.6905    7.2786    4.7095 H       1  UNL1        0.0000
     40 H          -0.1320    8.6432    3.7346 H       1  UNL1        0.0000
     41 H           0.0897    8.6526    5.4903 H       1  UNL1        0.0000
     42 C           1.4449    6.4500    3.2045 C.3     1  UNL1        0.0000
     43 H           2.4234    5.9871    3.0766 H       1  UNL1        0.0000
     44 H           1.2204    7.0318    2.3130 H       1  UNL1        0.0000
     45 H           0.6910    5.6724    3.3144 H       1  UNL1        0.0000
     46 C           2.5380    8.4322    4.2752 C.3     1  UNL1        0.0000
     47 H           2.6301    9.0172    5.1875 H       1  UNL1        0.0000
     48 H           2.2763    9.1008    3.4578 H       1  UNL1        0.0000
     49 H           3.4955    7.9718    4.0501 H       1  UNL1        0.0000
     50 C           5.1794    3.1326    9.5985 C.3     1  UNL1        0.0000
     51 H           6.1323    3.0207   10.1085 H       1  UNL1        0.0000
     52 H           4.5943    2.2249    9.7378 H       1  UNL1        0.0000
     53 H           4.6307    3.9603   10.0444 H       1  UNL1        0.0000
     54 C           5.4219    3.3834    8.1559 C.3     1  UNL1        0.0000
     55 C           6.6162    3.4204    7.4651 C.2     1  UNL1        0.0000
     56 C           6.3375    3.6788    6.1359 C.2     1  UNL1        0.0000
     57 C           7.3362    3.7287    5.0161 C.3     1  UNL1        0.0000
     58 C           7.7815    5.1763    4.7738 C.3     1  UNL1        0.0000
     59 H           6.9587    5.7541    4.3634 H       1  UNL1        0.0000
     60 H           8.6070    5.1984    4.0655 H       1  UNL1        0.0000
     61 H           8.1094    5.6339    5.7045 H       1  UNL1        0.0000
     62 C           6.7313    3.1524    3.7360 C.3     1  UNL1        0.0000
     63 H           6.4633    2.1080    3.8844 H       1  UNL1        0.0000
     64 H           7.4452    3.2166    2.9178 H       1  UNL1        0.0000
     65 H           5.8380    3.7167    3.4588 H       1  UNL1        0.0000
     66 C           8.5491    2.8902    5.4347 C.3     1  UNL1        0.0000
     67 H           8.9777    3.2873    6.3515 H       1  UNL1        0.0000
     68 H           9.3069    2.9079    4.6548 H       1  UNL1        0.0000
     69 H           8.2572    1.8581    5.6143 H       1  UNL1        0.0000
     70 B           2.9234    3.5792    7.4048 B       1  UNL1        0.0000
     71 H           2.5937    3.2248    8.4773 H       1  UNL1        0.0000
@<TRIPOS>BOND
     1    20    18    1
     2    28    26    1
     3    24    22    1
     4    27    26    1
     5    26    29    1
     6    26    17    1
     7    18    21    1
     8    18    19    1
     9    18    17    1
    10    44    42    1
    11    22    17    1
    12    22    23    1
    13    22    25    1
    14    17    16    1
    15    64    62    1
    16    43    42    1
    17    42    45    1
    18    42    37    1
    19    48    46    1
    20    65    62    1
    21    40    38    1
    22    62    63    1
    23    62    57    1
    24    49    46    1
    25    60    58    1
    26     2     1    1
    27     2     3    1
    28    16     5    1
    29    16    15    2
    30    46    37    1
    31    46    47    1
    32    59    58    1
    33    37    38    1
    34    37    36    1
    35    38    39    1
    36    38    41    1
    37    68    66    1
    38     1     5    1
    39     1     7    1
    40     1     9    1
    41    58    57    1
    42    58    61    1
    43    57    66    1
    44    57    56    1
    45     5     4    1
    46    15    14    1
    47    66    69    1
    48    66    67    1
    49    36     7    1
    50    36    35    2
    51     7     6    1
    52     9    56    1
    53     9     8    1
    54    56    55    2
    55     4    14    1
    56     4    70    1
    57    14    10    1
    58    35    34    1
    59     6    70    1
    60     6    34    1
    61     8    70    1
    62     8    54    1
    63    12    10    1
    64    70    71    1
    65    55    54    1
    66    10    13    1
    67    10    11    1
    68    34    30    1
    69    54    50    1
    70    30    31    1
    71    30    32    1
    72    30    33    1
    73    50    52    1
    74    50    53    1
    75    50    51    1
