@<TRIPOS>MOLECULE
CSD_code = UJAMEZ | q = 0 | S = 0 | Stoichiometry = C29H42CoN3 | MND = 4
 75 79 0 0 0
SMALL
GASTEIGER

@<TRIPOS>ATOM
      1 CO          5.2929    1.4001   13.9188 Co.oh   1  UNL1        0.0000
      2 N           3.5390    1.2530   14.0056 N.pl3   1  UNL1        0.0000
      3 N           5.1399    1.5070   15.7770 N.pl3   1  UNL1        0.0000
      4 N           4.9915    1.1315   12.0646 N.pl3   1  UNL1        0.0000
      5 C           7.8787    2.6569   17.9758 C.ar    1  UNL1        0.0000
      6 H           8.3436    3.5760   18.2989 H       1  UNL1        0.0000
      7 C           2.8311    1.2988   12.8492 C.2     1  UNL1        0.0000
      8 C           7.0114   -0.1013   11.4291 C.3     1  UNL1        0.0000
      9 H           7.3930    0.1737   12.4187 H       1  UNL1        0.0000
     10 C           6.8066    2.7043   17.0957 C.ar    1  UNL1        0.0000
     11 C           3.7212    1.1798   11.7294 C.2     1  UNL1        0.0000
     12 C           6.6849    0.2712   17.1828 C.ar    1  UNL1        0.0000
     13 C           5.9807    0.9636   11.0096 C.3     1  UNL1        0.0000
     14 H           5.4968    0.5950   10.0968 H       1  UNL1        0.0000
     15 C           6.2158    1.5011   16.6935 C.ar    1  UNL1        0.0000
     16 C           2.9262    1.4819   15.1958 C.2     1  UNL1        0.0000
     17 C           8.1821   -0.1918   10.4492 C.3     1  UNL1        0.0000
     18 H           7.8001   -0.4023    9.4462 H       1  UNL1        0.0000
     19 H           8.7189    0.7560   10.4168 H       1  UNL1        0.0000
     20 C           7.7664    0.2679   18.0489 C.ar    1  UNL1        0.0000
     21 H           8.1526   -0.6650   18.4271 H       1  UNL1        0.0000
     22 C           6.0250   -1.0082   16.7165 C.3     1  UNL1        0.0000
     23 H           4.9442   -0.8336   16.6604 H       1  UNL1        0.0000
     24 C           0.8048    1.6008   14.1017 C.2     1  UNL1        0.0000
     25 H          -0.2685    1.7125   14.1359 H       1  UNL1        0.0000
     26 C           6.6062    2.3266   10.6947 C.3     1  UNL1        0.0000
     27 H           5.8204    3.0705   10.5793 H       1  UNL1        0.0000
     28 H           7.1794    2.2841    9.7729 H       1  UNL1        0.0000
     29 H           7.2467    2.6383   11.5132 H       1  UNL1        0.0000
     30 C           8.3594    1.4521   18.4479 C.ar    1  UNL1        0.0000
     31 H           9.1968    1.4322   19.1300 H       1  UNL1        0.0000
     32 C           3.9077    1.5517   16.2334 C.3     1  UNL1        0.0000
     33 C           1.5451    1.6371   15.2749 C.2     1  UNL1        0.0000
     34 H           1.0668    1.7965   16.2283 H       1  UNL1        0.0000
     35 C           7.2956   -2.5627   11.9293 C.3     1  UNL1        0.0000
     36 H           6.7746   -3.5218   11.9781 H       1  UNL1        0.0000
     37 H           7.6925   -2.3432   12.9213 H       1  UNL1        0.0000
     38 C           9.1553   -1.2941   10.8599 C.3     1  UNL1        0.0000
     39 H           9.9778   -1.3425   10.1428 H       1  UNL1        0.0000
     40 H           9.5770   -1.0526   11.8380 H       1  UNL1        0.0000
     41 C           1.4464    1.4599   12.8787 C.2     1  UNL1        0.0000
     42 H           0.8706    1.4855   11.9669 H       1  UNL1        0.0000
     43 C           6.2983    4.0345   16.5905 C.3     1  UNL1        0.0000
     44 H           5.4898    3.8490   15.8762 H       1  UNL1        0.0000
     45 C           3.5335    1.6616   17.6782 C.3     1  UNL1        0.0000
     46 H           2.8882    0.8304   17.9627 H       1  UNL1        0.0000
     47 H           2.9809    2.5858   17.8494 H       1  UNL1        0.0000
     48 H           4.4181    1.6561   18.3104 H       1  UNL1        0.0000
     49 C           3.1939    1.1150   10.3254 C.3     1  UNL1        0.0000
     50 H           3.6761    1.8562    9.6897 H       1  UNL1        0.0000
     51 H           2.1252    1.3034   10.3177 H       1  UNL1        0.0000
     52 H           3.3641    0.1277    9.8938 H       1  UNL1        0.0000
     53 C           6.3193   -1.4653   11.5208 C.3     1  UNL1        0.0000
     54 H           5.4999   -1.4093   12.2414 H       1  UNL1        0.0000
     55 H           5.8924   -1.7161   10.5446 H       1  UNL1        0.0000
     56 C           5.7486    4.8801   17.7415 C.3     1  UNL1        0.0000
     57 H           4.9658    4.3448   18.2747 H       1  UNL1        0.0000
     58 H           5.3312    5.8083   17.3571 H       1  UNL1        0.0000
     59 H           6.5357    5.1270   18.4502 H       1  UNL1        0.0000
     60 C           6.2502   -2.1963   17.6500 C.3     1  UNL1        0.0000
     61 H           7.2838   -2.5325   17.6174 H       1  UNL1        0.0000
     62 H           5.6198   -3.0277   17.3404 H       1  UNL1        0.0000
     63 H           5.9960   -1.9370   18.6755 H       1  UNL1        0.0000
     64 C           8.4491   -2.6425   10.9362 C.3     1  UNL1        0.0000
     65 H           9.1544   -3.4185   11.2415 H       1  UNL1        0.0000
     66 H           8.0648   -2.9096    9.9486 H       1  UNL1        0.0000
     67 C           6.5260   -1.3373   15.3080 C.3     1  UNL1        0.0000
     68 H           7.6048   -1.4803   15.3207 H       1  UNL1        0.0000
     69 H           6.2934   -0.5059   14.6205 H       1  UNL1        0.0000
     70 H           6.0513   -2.2427   14.9353 H       1  UNL1        0.0000
     71 C           7.4032    4.7836   15.8444 C.3     1  UNL1        0.0000
     72 H           8.2401    5.0112   16.4999 H       1  UNL1        0.0000
     73 H           7.0151    5.7174   15.4435 H       1  UNL1        0.0000
     74 H           7.7605    4.1745   15.0186 H       1  UNL1        0.0000
     75 H           6.5542    2.1258   13.8169 H       1  UNL1        0.0000
@<TRIPOS>BOND
     1    18    17    1
     2    50    49    1
     3    28    26    1
     4    52    49    1
     5    66    64    1
     6    14    13    1
     7    39    38    1
     8    51    49    1
     9    49    11    1
    10    19    17    1
    11    17    38    1
    12    17     8    1
    13    55    53    1
    14    27    26    1
    15    26    13    1
    16    26    29    1
    17    38    64    1
    18    38    40    1
    19    64    65    1
    20    64    35    1
    21    13     8    1
    22    13     4    1
    23     8    53    1
    24     8     9    1
    25    53    35    1
    26    53    54    1
    27    11     4    1
    28    11     7    2
    29    35    36    1
    30    35    37    1
    31    42    41    1
    32     4     1    1
    33     7    41    1
    34     7     2    1
    35    41    24    2
    36    75     1    1
    37     1     2    1
    38     1     3    1
    39     2    16    1
    40    24    25    1
    41    24    33    1
    42    69    67    1
    43    70    67    1
    44    74    71    1
    45    16    33    2
    46    16    32    1
    47    33    34    1
    48    67    68    1
    49    67    22    1
    50    73    71    1
    51     3    32    1
    52     3    15    1
    53    71    72    1
    54    71    43    1
    55    44    43    1
    56    32    45    1
    57    43    10    1
    58    43    56    1
    59    23    22    1
    60    15    10   ar
    61    15    12   ar
    62    22    12    1
    63    22    60    1
    64    10     5   ar
    65    12    20   ar
    66    62    60    1
    67    58    56    1
    68    61    60    1
    69    60    63    1
    70    45    47    1
    71    45    46    1
    72    45    48    1
    73    56    57    1
    74    56    59    1
    75     5     6    1
    76     5    30   ar
    77    20    21    1
    78    20    30   ar
    79    30    31    1
