@<TRIPOS>MOLECULE
CSD_code = UKEJOJ | q = 0 | S = 0 | Stoichiometry = C20H28CoN9O2 | MND = 6
 60 63 0 0 0
SMALL
GASTEIGER

@<TRIPOS>ATOM
      1 CO         -0.1037    7.6280    5.9078 Co.oh   1  UNL1        0.0000
      2 O           0.8196    9.2834    6.5600 O.3     1  UNL1        0.0000
      3 O          -0.8113   10.7141    7.0191 O.2     1  UNL1        0.0000
      4 N          -1.8302    8.5621    5.7302 N.4     1  UNL1        0.0000
      5 H          -1.6059    9.4388    6.2673 H       1  UNL1        0.0000
      6 N           0.2233    8.1792    4.0267 N.4     1  UNL1        0.0000
      7 H          -0.0730    7.4040    3.4327 H       1  UNL1        0.0000
      8 N           1.7938    6.9285    5.8518 N.4     1  UNL1        0.0000
      9 H           2.2205    7.6455    6.4473 H       1  UNL1        0.0000
     10 N          -0.7698    6.0383    5.2356 N.2     1  UNL1        0.0000
     11 N          -1.3596    5.1548    5.7338 N.2     1  UNL1        0.0000
     12 N          -1.9319    4.2276    6.0438 N.2     1  UNL1        0.0000
     13 N          -0.3984    7.1517    7.6696 N.2     1  UNL1        0.0000
     14 N           0.3441    7.3454    8.5551 N.2     1  UNL1        0.0000
     15 N           0.9898    7.4568    9.4826 N.2     1  UNL1        0.0000
     16 C          -5.3881    8.6544    5.5929 C.ar    1  UNL1        0.0000
     17 H          -5.4833    7.6865    5.1213 H       1  UNL1        0.0000
     18 C          -6.4425    9.5502    5.5457 C.ar    1  UNL1        0.0000
     19 H          -7.3549    9.2798    5.0347 H       1  UNL1        0.0000
     20 C          -6.3256   10.7897    6.1499 C.ar    1  UNL1        0.0000
     21 H          -7.1466   11.4904    6.1116 H       1  UNL1        0.0000
     22 C          -5.1528   11.1269    6.8055 C.ar    1  UNL1        0.0000
     23 H          -5.0577   12.0922    7.2800 H       1  UNL1        0.0000
     24 C          -4.1009   10.2300    6.8597 C.ar    1  UNL1        0.0000
     25 H          -3.1908   10.5032    7.3722 H       1  UNL1        0.0000
     26 C          -4.2106    8.9842    6.2506 C.ar    1  UNL1        0.0000
     27 C          -3.0631    8.0066    6.3027 C.3     1  UNL1        0.0000
     28 H          -2.8483    7.7377    7.3405 H       1  UNL1        0.0000
     29 H          -3.3275    7.0924    5.7636 H       1  UNL1        0.0000
     30 C          -2.0095    8.9604    4.3277 C.3     1  UNL1        0.0000
     31 H          -2.7025    9.8059    4.2501 H       1  UNL1        0.0000
     32 H          -2.4290    8.1125    3.7740 H       1  UNL1        0.0000
     33 C          -0.6409    9.3232    3.7565 C.3     1  UNL1        0.0000
     34 H          -0.7040    9.5584    2.6861 H       1  UNL1        0.0000
     35 H          -0.2462   10.1948    4.2844 H       1  UNL1        0.0000
     36 C           1.6618    8.3584    3.8761 C.3     1  UNL1        0.0000
     37 H           1.9568    9.2495    4.4352 H       1  UNL1        0.0000
     38 H           1.9637    8.4795    2.8273 H       1  UNL1        0.0000
     39 C           2.3158    7.1220    4.4910 C.3     1  UNL1        0.0000
     40 H           2.0424    6.2411    3.9015 H       1  UNL1        0.0000
     41 H           3.4084    7.2151    4.4930 H       1  UNL1        0.0000
     42 C           2.1884    5.6218    6.4094 C.3     1  UNL1        0.0000
     43 H           1.9331    4.8440    5.6865 H       1  UNL1        0.0000
     44 H           1.6055    5.4454    7.3159 H       1  UNL1        0.0000
     45 C           3.6572    5.6058    6.7425 C.ar    1  UNL1        0.0000
     46 C           4.1024    6.2931    7.8670 C.ar    1  UNL1        0.0000
     47 H           3.3865    6.7825    8.5135 H       1  UNL1        0.0000
     48 C           5.4512    6.3337    8.1705 C.ar    1  UNL1        0.0000
     49 H           5.7881    6.8641    9.0484 H       1  UNL1        0.0000
     50 C           6.3669    5.6906    7.3535 C.ar    1  UNL1        0.0000
     51 H           7.4197    5.7207    7.5917 H       1  UNL1        0.0000
     52 C           5.9297    5.0029    6.2346 C.ar    1  UNL1        0.0000
     53 H           6.6399    4.4956    5.5984 H       1  UNL1        0.0000
     54 C           4.5798    4.9632    5.9287 C.ar    1  UNL1        0.0000
     55 H           4.2401    4.4200    5.0579 H       1  UNL1        0.0000
     56 C           0.3582   10.3310    7.1089 C.2     1  UNL1        0.0000
     57 C           1.3675   11.1387    7.9115 C.3     1  UNL1        0.0000
     58 H           2.3223   11.1810    7.3927 H       1  UNL1        0.0000
     59 H           1.5140   10.6324    8.8643 H       1  UNL1        0.0000
     60 H           0.9839   12.1385    8.0905 H       1  UNL1        0.0000
@<TRIPOS>BOND
     1    34    33    1
     2    38    36    1
     3     7     6    1
     4    33     6    1
     5    33    35    1
     6    33    30    1
     7    32    30    1
     8    36     6    1
     9    36    37    1
    10    36    39    1
    11    40    39    1
    12     6     1    1
    13    31    30    1
    14    30     4    1
    15    39    41    1
    16    39     8    1
    17    19    18    1
    18    55    54    1
    19    17    16    1
    20    10    11    2
    21    10     1    1
    22    18    16   ar
    23    18    20   ar
    24    16    26   ar
    25    53    52    1
    26    43    42    1
    27     4     1    1
    28     4     5    1
    29     4    27    1
    30    11    12    2
    31    29    27    1
    32     8     1    1
    33     8    42    1
    34     8     9    1
    35     1     2    1
    36     1    13    1
    37    54    52   ar
    38    54    45   ar
    39    21    20    1
    40    20    22   ar
    41    52    50   ar
    42    26    27    1
    43    26    24   ar
    44    27    28    1
    45    42    45    1
    46    42    44    1
    47     2    56    1
    48    45    46   ar
    49    22    24   ar
    50    22    23    1
    51    24    25    1
    52     3    56    2
    53    56    57    1
    54    50    51    1
    55    50    48   ar
    56    58    57    1
    57    13    14    2
    58    46    48   ar
    59    46    47    1
    60    57    60    1
    61    57    59    1
    62    48    49    1
    63    14    15    2
