@<TRIPOS>MOLECULE
CSD_code = ULAMOK | q = 1 | S = 0 | Stoichiometry = C30H27CoN5O3(1+) | MND = 6
 66 72 0 0 0
SMALL
GASTEIGER

@<TRIPOS>ATOM
      1 CO          4.3391    7.0891    3.4339 Co.oh   1  UNL1        0.0000
      2 C          -0.3526    5.1844    3.0288 C.ar    1  UNL1        0.0000
      3 H          -0.0526    4.6477    3.9144 H       1  UNL1        0.0000
      4 C          -1.6020    5.0030    2.4690 C.ar    1  UNL1        0.0000
      5 H          -2.2983    4.3129    2.9208 H       1  UNL1        0.0000
      6 C          -1.9644    5.7040    1.3283 C.ar    1  UNL1        0.0000
      7 H          -2.9422    5.5597    0.8947 H       1  UNL1        0.0000
      8 C          -1.0730    6.5900    0.7442 C.ar    1  UNL1        0.0000
      9 H          -1.3565    7.1358   -0.1431 H       1  UNL1        0.0000
     10 C           0.1788    6.7771    1.2981 C.ar    1  UNL1        0.0000
     11 H           0.8823    7.4658    0.8539 H       1  UNL1        0.0000
     12 C           0.5473    6.0752    2.4445 C.ar    1  UNL1        0.0000
     13 C           1.8764    6.2761    3.0281 C.2     1  UNL1        0.0000
     14 C           3.8883    5.3546    5.6213 C.3     1  UNL1        0.0000
     15 H           3.2201    4.6694    6.1346 H       1  UNL1        0.0000
     16 C           5.1687    5.5936    6.1889 C.ar    1  UNL1        0.0000
     17 C           6.1150    6.4214    5.5341 C.ar    1  UNL1        0.0000
     18 C           7.3760    6.6385    6.1696 C.ar    1  UNL1        0.0000
     19 C           7.6600    6.0433    7.3756 C.ar    1  UNL1        0.0000
     20 H           8.6100    6.2054    7.8582 H       1  UNL1        0.0000
     21 C           6.7185    5.2176    8.0011 C.ar    1  UNL1        0.0000
     22 H           6.9677    4.7618    8.9457 H       1  UNL1        0.0000
     23 C           5.5004    4.9967    7.4239 C.ar    1  UNL1        0.0000
     24 H           4.7696    4.3662    7.9057 H       1  UNL1        0.0000
     25 C           9.4821    7.7340    6.0132 C.3     1  UNL1        0.0000
     26 H           9.4061    8.2298    6.9858 H       1  UNL1        0.0000
     27 H           9.9709    8.4023    5.3061 H       1  UNL1        0.0000
     28 H          10.0755    6.8206    6.1164 H       1  UNL1        0.0000
     29 C           5.5609    4.5428    2.7718 C.3     1  UNL1        0.0000
     30 H           5.8337    4.5602    3.8164 H       1  UNL1        0.0000
     31 C           5.9267    3.4654    1.9840 C.2     1  UNL1        0.0000
     32 H           6.4780    2.6494    2.4226 H       1  UNL1        0.0000
     33 C           5.5697    3.4536    0.6458 C.2     1  UNL1        0.0000
     34 H           5.8335    2.6254    0.0069 H       1  UNL1        0.0000
     35 C           4.8584    4.5363    0.1537 C.2     1  UNL1        0.0000
     36 H           4.5515    4.5805   -0.8789 H       1  UNL1        0.0000
     37 C           4.5358    5.5744    1.0080 C.2     1  UNL1        0.0000
     38 H           3.9673    6.4193    0.6464 H       1  UNL1        0.0000
     39 C           4.4774    9.1892    1.4100 C.3     1  UNL1        0.0000
     40 H           3.4067    9.1376    1.5457 H       1  UNL1        0.0000
     41 C           5.0301   10.0619    0.4891 C.2     1  UNL1        0.0000
     42 H           4.3891   10.7025   -0.0952 H       1  UNL1        0.0000
     43 C           6.4074   10.0955    0.3375 C.2     1  UNL1        0.0000
     44 H           6.8702   10.7628   -0.3731 H       1  UNL1        0.0000
     45 C           7.1729    9.2516    1.1262 C.2     1  UNL1        0.0000
     46 H           8.2484    9.2423    1.0518 H       1  UNL1        0.0000
     47 C           6.5383    8.4086    2.0221 C.2     1  UNL1        0.0000
     48 H           7.1062    7.7552    2.6698 H       1  UNL1        0.0000
     49 C           2.5521    8.7777    4.9930 C.3     1  UNL1        0.0000
     50 H           1.7990    8.0765    4.6644 H       1  UNL1        0.0000
     51 C           2.1834    9.8318    5.8105 C.2     1  UNL1        0.0000
     52 H           1.1524    9.9383    6.1063 H       1  UNL1        0.0000
     53 C           3.1505   10.7267    6.2363 C.2     1  UNL1        0.0000
     54 H           2.8965   11.5570    6.8763 H       1  UNL1        0.0000
     55 C           4.4551   10.5202    5.8169 C.2     1  UNL1        0.0000
     56 H           5.2504   11.1817    6.1203 H       1  UNL1        0.0000
     57 C           4.7391    9.4443    4.9964 C.2     1  UNL1        0.0000
     58 H           5.7539    9.2553    4.6774 H       1  UNL1        0.0000
     59 N           2.2065    5.6064    4.1038 N.2     1  UNL1        0.0000
     60 N           3.4441    5.9020    4.5327 N.pl3   1  UNL1        0.0000
     61 N           4.8757    5.5854    2.2992 N.pl3   1  UNL1        0.0000
     62 N           5.2134    8.3703    2.1627 N.pl3   1  UNL1        0.0000
     63 N           3.8072    8.5792    4.5847 N.pl3   1  UNL1        0.0000
     64 O           2.6965    7.1188    2.4961 O.2     1  UNL1        0.0000
     65 O           5.9244    6.9859    4.3781 O.3     1  UNL1        0.0000
     66 O           8.2109    7.4659    5.4696 O.3     1  UNL1        0.0000
@<TRIPOS>BOND
     1    36    35    1
     2    44    43    1
     3     9     8    1
     4    42    41    1
     5    34    33    1
     6    35    33    1
     7    35    37    2
     8    43    41    2
     9    43    45    1
    10    41    39    1
    11    33    31    2
    12    38    37    1
    13     8    10   ar
    14     8     6   ar
    15    11    10    1
    16     7     6    1
    17    37    61    1
    18    46    45    1
    19    45    47    2
    20    10    12   ar
    21     6     4   ar
    22    39    40    1
    23    39    62    1
    24    31    32    1
    25    31    29    1
    26    47    62    1
    27    47    48    1
    28    62     1    1
    29    61    29    1
    30    61     1    1
    31    12    13    1
    32    12     2   ar
    33     4     5    1
    34     4     2   ar
    35    64    13    1
    36    64     1    1
    37    29    30    1
    38    13    59    2
    39     2     3    1
    40     1    65    1
    41     1    60    1
    42     1    63    1
    43    59    60    1
    44    65    17    1
    45    60    14    1
    46    63    49    1
    47    63    57    1
    48    50    49    1
    49    58    57    1
    50    49    51    1
    51    57    55    2
    52    27    25    1
    53    66    25    1
    54    66    18    1
    55    17    18   ar
    56    17    16   ar
    57    14    15    1
    58    14    16    1
    59    51    52    1
    60    51    53    2
    61    55    56    1
    62    55    53    1
    63    25    28    1
    64    25    26    1
    65    18    19   ar
    66    16    23   ar
    67    53    54    1
    68    19    20    1
    69    19    21   ar
    70    23    24    1
    71    23    21   ar
    72    21    22    1
