@<TRIPOS>MOLECULE
CSD_code = UMACIV | q = 1 | S = 0 | Stoichiometry = C24H24CoN6O2(1+) | MND = 6
 57 64 0 0 0
SMALL
GASTEIGER

@<TRIPOS>ATOM
      1 CO          5.0391    5.3711    1.4052 Co.oh   1  UNL1        0.0000
      2 O           3.6985    5.5911    2.7284 O.3     1  UNL1        0.0000
      3 O           6.4748    5.0427    0.2099 O.3     1  UNL1        0.0000
      4 N           4.9387    7.2862    1.0075 N.pl3   1  UNL1        0.5000
      5 N           6.2321    5.7645    2.8201 N.pl3   1  UNL1        0.0000
      6 N           4.0108    7.8857    3.0685 N.pl3   1  UNL1        0.5000
      7 H           3.4304    8.5431    3.5608 H       1  UNL1        0.0000
      8 N           3.7716    5.0185   -0.0455 N.pl3   1  UNL1        0.5000
      9 N           5.1328    3.5075    1.7280 N.pl3   1  UNL1        0.0000
     10 N           5.2668    3.7693   -1.3390 N.pl3   1  UNL1        0.5000
     11 H           5.5254    3.4838   -2.2679 H       1  UNL1        0.0000
     12 C           5.3665    7.6645   -0.2089 C.3     1  UNL1        0.0000
     13 H           5.8665    6.8998   -0.7826 H       1  UNL1        0.0000
     14 C           5.2170    8.9357   -0.6978 C.2     1  UNL1        0.0000
     15 H           5.5776    9.1869   -1.6808 H       1  UNL1        0.0000
     16 C           4.5905    9.8894    0.1034 C.2     1  UNL1        0.0000
     17 H           4.4483   10.8961   -0.2591 H       1  UNL1        0.0000
     18 C           4.1691    9.5473    1.3652 C.2     1  UNL1        0.0000
     19 C           4.3737    8.2106    1.8048 C.2     1  UNL1        0.0000
     20 C           4.1308    6.5139    3.6009 C.3     1  UNL1        0.0000
     21 H           3.5440    6.4920    4.5347 H       1  UNL1        0.0000
     22 C           5.6140    6.3120    3.8715 C.3     1  UNL1        0.0000
     23 C           6.2898    6.6617    5.0275 C.2     1  UNL1        0.0000
     24 H           5.7525    7.0961    5.8554 H       1  UNL1        0.0000
     25 C           7.6566    6.4392    5.0917 C.2     1  UNL1        0.0000
     26 H           8.2132    6.6966    5.9795 H       1  UNL1        0.0000
     27 C           8.2934    5.8869    3.9903 C.2     1  UNL1        0.0000
     28 H           9.3564    5.7082    3.9953 H       1  UNL1        0.0000
     29 C           7.5450    5.5628    2.8727 C.2     1  UNL1        0.0000
     30 H           7.9940    5.1468    1.9820 H       1  UNL1        0.0000
     31 C           3.5201   10.5514    2.2682 C.3     1  UNL1        0.0000
     32 H           2.5071   10.2465    2.5329 H       1  UNL1        0.0000
     33 H           3.4600   11.5137    1.7678 H       1  UNL1        0.0000
     34 H           4.0952   10.6812    3.1849 H       1  UNL1        0.0000
     35 C           2.5455    5.5505    0.0929 C.3     1  UNL1        0.0000
     36 H           2.3356    5.9864    1.0573 H       1  UNL1        0.0000
     37 C           1.5984    5.5271   -0.8970 C.2     1  UNL1        0.0000
     38 H           0.6300    5.9688   -0.7343 H       1  UNL1        0.0000
     39 C           1.9179    4.9223   -2.1120 C.2     1  UNL1        0.0000
     40 H           1.1964    4.8985   -2.9143 H       1  UNL1        0.0000
     41 C           3.1510    4.3407   -2.2789 C.2     1  UNL1        0.0000
     42 C           4.0730    4.3935   -1.1978 C.2     1  UNL1        0.0000
     43 C           6.3125    3.8116   -0.2977 C.3     1  UNL1        0.0000
     44 H           7.2381    3.4465   -0.7738 H       1  UNL1        0.0000
     45 C           5.8376    2.8631    0.7925 C.3     1  UNL1        0.0000
     46 C           6.0531    1.4968    0.8387 C.2     1  UNL1        0.0000
     47 H           6.6322    1.0162    0.0663 H       1  UNL1        0.0000
     48 C           5.5127    0.7738    1.8907 C.2     1  UNL1        0.0000
     49 H           5.6655   -0.2920    1.9599 H       1  UNL1        0.0000
     50 C           4.7683    1.4470    2.8480 C.2     1  UNL1        0.0000
     51 H           4.3228    0.9207    3.6765 H       1  UNL1        0.0000
     52 C           4.6016    2.8156    2.7310 C.2     1  UNL1        0.0000
     53 H           4.0164    3.3851    3.4389 H       1  UNL1        0.0000
     54 C           3.5215    3.6541   -3.5581 C.3     1  UNL1        0.0000
     55 H           2.6952    3.7122   -4.2611 H       1  UNL1        0.0000
     56 H           3.7465    2.6018   -3.3850 H       1  UNL1        0.0000
     57 H           4.3899    4.1243   -4.0207 H       1  UNL1        0.0000
@<TRIPOS>BOND
     1    55    54    1
     2    57    54    1
     3    54    56    1
     4    54    41    1
     5    40    39    1
     6    41    39    1
     7    41    42    2
     8    11    10    1
     9    39    37    2
    10    15    14    1
    11    10    42    1
    12    10    43    1
    13    42     8    1
    14    37    38    1
    15    37    35    1
    16    13    12    1
    17    44    43    1
    18    14    12    1
    19    14    16    2
    20    43     3    1
    21    43    45    1
    22    17    16    1
    23    12     4    1
    24     8    35    1
    25     8     1    1
    26    47    46    1
    27    35    36    1
    28    16    18    1
    29     3     1    1
    30    45    46    1
    31    45     9    1
    32    46    48    2
    33     4     1    1
    34     4    19    1
    35    18    19    2
    36    18    31    1
    37     1     9    1
    38     1     2    1
    39     1     5    1
    40     9    52    1
    41    33    31    1
    42    19     6    1
    43    48    49    1
    44    48    50    1
    45    30    29    1
    46    31    32    1
    47    31    34    1
    48     2    20    1
    49    52    50    2
    50    52    53    1
    51     5    29    1
    52     5    22    1
    53    50    51    1
    54    29    27    2
    55     6     7    1
    56     6    20    1
    57    20    22    1
    58    20    21    1
    59    22    23    1
    60    27    28    1
    61    27    25    1
    62    23    25    2
    63    23    24    1
    64    25    26    1
