@<TRIPOS>MOLECULE
CSD_code = VAVFAA | q = 1 | S = 0 | Stoichiometry = C18H20CoN6O4(1+) | MND = 6
 49 54 0 0 0
SMALL
GASTEIGER

@<TRIPOS>ATOM
      1 CO         11.3874    6.0324   -0.6661 Co.oh   1  UNL1        0.0000
      2 N          12.0893    5.4644    1.0153 N.pl3   1  UNL1        0.0000
      3 N          11.0675    4.1973   -0.9246 N.pl3   1  UNL1        0.0000
      4 N          10.4540    3.7173   -1.9948 N.3     1  UNL1        0.0000
      5 N          11.6671    7.8765   -0.4238 N.pl3   1  UNL1        0.0000
      6 N          10.7334    8.6911    0.0415 N.3     1  UNL1        0.0000
      7 N          13.1552    6.0669   -1.3842 N.pl3   1  UNL1        0.0000
      8 O          10.7684    6.5534   -2.3539 O.3     1  UNL1        0.0000
      9 O           9.8008    6.3008   -4.3058 O.2     1  UNL1        0.0000
     10 O           9.6885    6.0119    0.1200 O.3     1  UNL1        0.0000
     11 O           7.8702    6.8709    0.9956 O.2     1  UNL1        0.0000
     12 C          12.0782    4.1179    1.1462 C.2     1  UNL1        0.0000
     13 C          12.5166    3.5100    2.3262 C.2     1  UNL1        0.0000
     14 H          12.5033    2.4378    2.4252 H       1  UNL1        0.0000
     15 C          12.9474    4.2921    3.3786 C.2     1  UNL1        0.0000
     16 H          13.2767    3.8373    4.2995 H       1  UNL1        0.0000
     17 C          12.9375    5.6729    3.2331 C.2     1  UNL1        0.0000
     18 H          13.2510    6.3225    4.0332 H       1  UNL1        0.0000
     19 C          12.5029    6.2094    2.0354 C.2     1  UNL1        0.0000
     20 H          12.4815    7.2811    1.9030 H       1  UNL1        0.0000
     21 C          11.5161    3.4138    0.0173 C.2     1  UNL1        0.0000
     22 C           9.5100    4.5227   -2.7352 C.3     1  UNL1        0.0000
     23 H           8.6260    4.7495   -2.1230 H       1  UNL1        0.0000
     24 H           9.2009    3.9650   -3.6191 H       1  UNL1        0.0000
     25 C          10.0699    5.8936   -3.2042 C.2     1  UNL1        0.0000
     26 C          11.3792    1.9245   -0.0562 C.3     1  UNL1        0.0000
     27 H          11.8002    1.5431   -0.9872 H       1  UNL1        0.0000
     28 H          10.3279    1.6341   -0.0057 H       1  UNL1        0.0000
     29 H          11.8958    1.4383    0.7625 H       1  UNL1        0.0000
     30 C          13.7198    7.2934   -1.2970 C.2     1  UNL1        0.0000
     31 C          13.8274    5.0870   -1.9796 C.2     1  UNL1        0.0000
     32 H          13.3392    4.1260   -2.0484 H       1  UNL1        0.0000
     33 C          15.0928    5.2550   -2.5104 C.2     1  UNL1        0.0000
     34 H          15.5890    4.4303   -2.9942 H       1  UNL1        0.0000
     35 C          15.6941    6.5029   -2.4138 C.2     1  UNL1        0.0000
     36 H          16.6796    6.6726   -2.8178 H       1  UNL1        0.0000
     37 C          15.0026    7.5278   -1.8005 C.2     1  UNL1        0.0000
     38 H          15.4469    8.5061   -1.7282 H       1  UNL1        0.0000
     39 C          12.8623    8.3048   -0.7247 C.2     1  UNL1        0.0000
     40 C           9.3308    8.3908   -0.1321 C.3     1  UNL1        0.0000
     41 H           9.0568    8.4081   -1.1962 H       1  UNL1        0.0000
     42 H           8.7492    9.1426    0.4009 H       1  UNL1        0.0000
     43 C           8.9087    6.9926    0.3969 C.2     1  UNL1        0.0000
     44 C          13.2576    9.7388   -0.5532 C.3     1  UNL1        0.0000
     45 H          12.6807   10.3773   -1.2252 H       1  UNL1        0.0000
     46 H          14.3072    9.8901   -0.7747 H       1  UNL1        0.0000
     47 H          13.0836   10.0678    0.4721 H       1  UNL1        0.0000
     48 H          10.9465    9.6848   -0.0085 H       1  UNL1        0.0000
     49 H          10.2069    2.7308   -1.9591 H       1  UNL1        0.0000
@<TRIPOS>BOND
     1     9    25    2
     2    24    22    1
     3    25    22    1
     4    25     8    1
     5    34    33    1
     6    36    35    1
     7    22    23    1
     8    22     4    1
     9    33    35    1
    10    33    31    2
    11    35    37    2
    12     8     1    1
    13    32    31    1
    14     4    49    1
    15     4     3    1
    16    31     7    1
    17    37    38    1
    18    37    30    1
    19     7    30    1
    20     7     1    1
    21    30    39    2
    22    45    44    1
    23    41    40    1
    24    27    26    1
    25     3     1    1
    26     3    21    1
    27    46    44    1
    28    39    44    1
    29    39     5    1
    30     1     5    1
    31     1    10    1
    32     1     2    1
    33    44    47    1
    34     5     6    1
    35    40     6    1
    36    40    43    1
    37    40    42    1
    38    26    28    1
    39    26    21    1
    40    26    29    1
    41    48     6    1
    42    21    12    2
    43    10    43    1
    44    43    11    2
    45     2    12    1
    46     2    19    1
    47    12    13    1
    48    20    19    1
    49    19    17    2
    50    13    14    1
    51    13    15    2
    52    17    15    1
    53    17    18    1
    54    15    16    1
