@<TRIPOS>MOLECULE
CSD_code = VEJSEL | q = 0 | S = 0 | Stoichiometry = C40H64CoN2P3Si | MND = 5
 111 118 0 0 0
SMALL
GASTEIGER

@<TRIPOS>ATOM
      1 CO          5.8649    5.9974   14.7705 Co.oh   1  UNL1        0.0000
      2 P           6.6026    7.8406   13.5225 P.3     1  UNL1        0.0000
      3 P           5.6652    3.9436   13.8089 P.3     1  UNL1        0.0000
      4 P           4.8523    6.5768   16.7455 P.3     1  UNL1        0.0000
      5 SI          3.9484    6.3274   13.6279 Si      1  UNL1        0.0000
      6 N           7.2902    5.6336   15.5132 N.3     1  UNL1        0.0000
      7 N           8.2212    5.3215   16.0592 N.3     1  UNL1        0.0000
      8 C           7.5041    7.6144   11.8929 C.3     1  UNL1        0.0000
      9 H           8.4106    7.0475   12.1490 H       1  UNL1        0.0000
     10 C           6.6348    6.7499   10.9858 C.3     1  UNL1        0.0000
     11 H           6.3531    5.8400   11.5170 H       1  UNL1        0.0000
     12 H           5.7143    7.2891   10.7454 H       1  UNL1        0.0000
     13 C           7.3638    6.3875    9.6975 C.3     1  UNL1        0.0000
     14 H           8.2496    5.7932    9.9362 H       1  UNL1        0.0000
     15 H           6.7105    5.7791    9.0681 H       1  UNL1        0.0000
     16 C           7.7869    7.6510    8.9570 C.3     1  UNL1        0.0000
     17 H           8.3355    7.3911    8.0489 H       1  UNL1        0.0000
     18 H           6.8971    8.2127    8.6632 H       1  UNL1        0.0000
     19 C           8.6562    8.5169    9.8619 C.3     1  UNL1        0.0000
     20 H           8.9470    9.4304    9.3377 H       1  UNL1        0.0000
     21 H           9.5696    7.9722   10.1149 H       1  UNL1        0.0000
     22 C           7.9122    8.8825   11.1465 C.3     1  UNL1        0.0000
     23 H           7.0194    9.4556   10.8885 H       1  UNL1        0.0000
     24 H           8.5637    9.5084   11.7582 H       1  UNL1        0.0000
     25 C           7.6934    9.1131   14.3472 C.3     1  UNL1        0.0000
     26 H           7.8216    9.9703   13.6777 H       1  UNL1        0.0000
     27 C           9.0666    8.5285   14.6733 C.3     1  UNL1        0.0000
     28 H           9.5777    8.2270   13.7563 H       1  UNL1        0.0000
     29 H           8.9459    7.6409   15.2969 H       1  UNL1        0.0000
     30 C           9.9208    9.5497   15.4203 C.3     1  UNL1        0.0000
     31 H          10.8943    9.1134   15.6537 H       1  UNL1        0.0000
     32 H          10.0891   10.4223   14.7832 H       1  UNL1        0.0000
     33 C           9.2253    9.9882   16.7047 C.3     1  UNL1        0.0000
     34 H           9.0970    9.1212   17.3569 H       1  UNL1        0.0000
     35 H           9.8404   10.7190   17.2343 H       1  UNL1        0.0000
     36 C           7.8605   10.5887   16.3834 C.3     1  UNL1        0.0000
     37 H           7.3538   10.8850   17.3052 H       1  UNL1        0.0000
     38 H           7.9950   11.4871   15.7750 H       1  UNL1        0.0000
     39 C           7.0023    9.5852   15.6208 C.3     1  UNL1        0.0000
     40 H           6.0388   10.0353   15.3640 H       1  UNL1        0.0000
     41 H           6.8128    8.7094   16.2485 H       1  UNL1        0.0000
     42 C           5.1538    8.8203   13.0032 C.ar    1  UNL1        0.0000
     43 C           5.2042   10.1602   12.6353 C.ar    1  UNL1        0.0000
     44 H           6.1294   10.7165   12.6786 H       1  UNL1        0.0000
     45 C           4.0540   10.8112   12.2251 C.ar    1  UNL1        0.0000
     46 H           4.0973   11.8546   11.9450 H       1  UNL1        0.0000
     47 C           2.8506   10.1278   12.1784 C.ar    1  UNL1        0.0000
     48 H           1.9524   10.6367   11.8569 H       1  UNL1        0.0000
     49 C           2.8012    8.7980   12.5582 C.ar    1  UNL1        0.0000
     50 H           1.8573    8.2744   12.5400 H       1  UNL1        0.0000
     51 C           3.9410    8.1305   12.9736 C.ar    1  UNL1        0.0000
     52 C           2.0998    6.0004   14.1160 C.3     1  UNL1        0.0000
     53 H           1.7379    6.6952   14.8656 H       1  UNL1        0.0000
     54 H           1.9657    4.9923   14.4940 H       1  UNL1        0.0000
     55 H           1.4698    6.0938   13.2387 H       1  UNL1        0.0000
     56 C           4.0087    5.1899   12.0832 C.ar    1  UNL1        0.0000
     57 C           3.3148    5.4079   10.9062 C.ar    1  UNL1        0.0000
     58 H           2.6985    6.2908   10.8115 H       1  UNL1        0.0000
     59 C           3.4238    4.5224    9.8478 C.ar    1  UNL1        0.0000
     60 H           2.8918    4.7073    8.9249 H       1  UNL1        0.0000
     61 C           4.2197    3.3959    9.9725 C.ar    1  UNL1        0.0000
     62 H           4.3049    2.6992    9.1502 H       1  UNL1        0.0000
     63 C           4.9096    3.1563   11.1485 C.ar    1  UNL1        0.0000
     64 H           5.5150    2.2676   11.2299 H       1  UNL1        0.0000
     65 C           4.8115    4.0548   12.2032 C.ar    1  UNL1        0.0000
     66 C           4.5187    2.8030   14.7416 C.3     1  UNL1        0.0000
     67 H           3.7128    3.4835   15.0521 H       1  UNL1        0.0000
     68 C           3.8768    1.6704   13.9442 C.3     1  UNL1        0.0000
     69 H           4.6325    0.9733   13.5822 H       1  UNL1        0.0000
     70 H           3.3543    2.0780   13.0760 H       1  UNL1        0.0000
     71 C           2.8853    0.9176   14.8304 C.3     1  UNL1        0.0000
     72 H           2.0776    1.5929   15.1238 H       1  UNL1        0.0000
     73 H           2.4421    0.0935   14.2668 H       1  UNL1        0.0000
     74 C           3.5732    0.3816   16.0828 C.3     1  UNL1        0.0000
     75 H           2.8503   -0.1503   16.7051 H       1  UNL1        0.0000
     76 H           4.3512   -0.3294   15.7939 H       1  UNL1        0.0000
     77 C           4.1997    1.5258   16.8746 C.3     1  UNL1        0.0000
     78 H           4.6993    1.1361   17.7646 H       1  UNL1        0.0000
     79 H           3.4095    2.2056   17.2031 H       1  UNL1        0.0000
     80 C           5.2017    2.2787   16.0037 C.3     1  UNL1        0.0000
     81 H           5.6394    3.1179   16.5532 H       1  UNL1        0.0000
     82 H           6.0142    1.6000   15.7400 H       1  UNL1        0.0000
     83 C           7.2713    3.0049   13.5897 C.3     1  UNL1        0.0000
     84 H           7.7066    3.0858   14.5996 H       1  UNL1        0.0000
     85 C           7.3335    1.5310   13.1909 C.3     1  UNL1        0.0000
     86 H           6.7263    0.9151   13.8545 H       1  UNL1        0.0000
     87 H           6.9751    1.3876   12.1715 H       1  UNL1        0.0000
     88 C           8.7848    1.0527   13.2612 C.3     1  UNL1        0.0000
     89 H           9.1512    1.1539   14.2859 H       1  UNL1        0.0000
     90 H           8.8338   -0.0051   12.9910 H       1  UNL1        0.0000
     91 C           9.6695    1.8701   12.3256 C.3     1  UNL1        0.0000
     92 H           9.3346    1.7289   11.2948 H       1  UNL1        0.0000
     93 H          10.7026    1.5221   12.3918 H       1  UNL1        0.0000
     94 C           9.5918    3.3505   12.6846 C.3     1  UNL1        0.0000
     95 H           9.9934    3.5040   13.6890 H       1  UNL1        0.0000
     96 H          10.1976    3.9358   11.9888 H       1  UNL1        0.0000
     97 C           8.1456    3.8314   12.6453 C.3     1  UNL1        0.0000
     98 H           8.0987    4.8830   12.9447 H       1  UNL1        0.0000
     99 H           7.7567    3.7531   11.6264 H       1  UNL1        0.0000
    100 C           3.6049    5.4141   17.4291 C.3     1  UNL1        0.0000
    101 H           4.0773    4.4532   17.6180 H       1  UNL1        0.0000
    102 H           2.8027    5.2824   16.7087 H       1  UNL1        0.0000
    103 H           3.1988    5.8061   18.3614 H       1  UNL1        0.0000
    104 C           3.8821    8.1304   16.8974 C.3     1  UNL1        0.0000
    105 H           4.5293    8.9905   16.7528 H       1  UNL1        0.0000
    106 H           3.4156    8.1878   17.8805 H       1  UNL1        0.0000
    107 H           3.1173    8.1442   16.1246 H       1  UNL1        0.0000
    108 C           5.9134    6.7149   18.2452 C.3     1  UNL1        0.0000
    109 H           6.6679    7.4864   18.1055 H       1  UNL1        0.0000
    110 H           6.4232    5.7651   18.4035 H       1  UNL1        0.0000
    111 H           5.3087    6.9542   19.1196 H       1  UNL1        0.0000
@<TRIPOS>BOND
     1    17    16    1
     2    18    16    1
     3    60    59    1
     4    16    13    1
     5    16    19    1
     6    15    13    1
     7    62    61    1
     8    20    19    1
     9    13    14    1
    10    13    10    1
    11    59    61   ar
    12    59    57   ar
    13    19    21    1
    14    19    22    1
    15    61    63   ar
    16    12    10    1
    17    58    57    1
    18    23    22    1
    19    57    56   ar
    20    10    11    1
    21    10     8    1
    22    22    24    1
    23    22     8    1
    24    63    64    1
    25    63    65   ar
    26    92    91    1
    27    99    97    1
    28    48    47    1
    29     8     9    1
    30     8     2    1
    31    46    45    1
    32    96    94    1
    33    56    65   ar
    34    56     5    1
    35    87    85    1
    36    47    45   ar
    37    47    49   ar
    38    65     3    1
    39    45    43   ar
    40    91    93    1
    41    91    94    1
    42    91    88    1
    43    50    49    1
    44    49    51   ar
    45    43    44    1
    46    43    42   ar
    47    97    94    1
    48    97    98    1
    49    97    83    1
    50    94    95    1
    51    51    42   ar
    52    51     5    1
    53    90    88    1
    54    42     2    1
    55    70    68    1
    56    85    88    1
    57    85    83    1
    58    85    86    1
    59    55    52    1
    60    88    89    1
    61     2    25    1
    62     2     1    1
    63    69    68    1
    64    83     3    1
    65    83    84    1
    66     5    52    1
    67     5     1    1
    68    26    25    1
    69    28    27    1
    70     3    66    1
    71     3     1    1
    72    68    66    1
    73    68    71    1
    74    52    54    1
    75    52    53    1
    76    73    71    1
    77    25    27    1
    78    25    39    1
    79    27    29    1
    80    27    30    1
    81    66    67    1
    82    66    80    1
    83     1     6    1
    84     1     4    1
    85    32    30    1
    86    71    72    1
    87    71    74    1
    88    40    39    1
    89    30    31    1
    90    30    33    1
    91     6     7    1
    92    39    41    1
    93    39    36    1
    94    82    80    1
    95    38    36    1
    96    76    74    1
    97    80    81    1
    98    80    77    1
    99    74    75    1
   100    74    77    1
   101   107   104    1
   102    36    33    1
   103    36    37    1
   104    33    35    1
   105    33    34    1
   106   102   100    1
   107     4   104    1
   108     4   100    1
   109     4   108    1
   110   105   104    1
   111    77    79    1
   112    77    78    1
   113   104   106    1
   114   100   101    1
   115   100   103    1
   116   109   108    1
   117   108   110    1
   118   108   111    1
