@<TRIPOS>MOLECULE
CSD_code = VIQJUC | q = 0 | S = 0 | Stoichiometry = C30H27CoN6O10S2 | MND = 6
 76 83 0 0 0
SMALL
GASTEIGER

@<TRIPOS>ATOM
      1 CO         -1.0751    1.8972    8.4999 Co.oh   1  UNL1        0.0000
      2 S          -3.6940    3.9045    7.4843 S.O2    1  UNL1        0.0000
      3 S           0.6043    4.6113    8.2611 S.O2    1  UNL1        0.0000
      4 O           1.2447    5.3970    7.2489 O.2     1  UNL1        0.0000
      5 O          -0.5127    5.2277    8.9801 O.2     1  UNL1        0.0000
      6 O          -1.3167    4.8836    6.4776 O.2     1  UNL1        0.0000
      7 O          -1.0933    6.8411    5.5999 O.2     1  UNL1        0.0000
      8 O          -3.4199    3.5157    6.1393 O.2     1  UNL1        0.0000
      9 O          -4.9475    3.4675    8.0237 O.2     1  UNL1        0.0000
     10 O          -2.3791    0.7102    9.1266 O.3     1  UNL1        0.0000
     11 O           0.2107    0.5747    8.5203 O.3     1  UNL1        0.0000
     12 O           0.8650    7.1571   10.4469 O.2     1  UNL1        0.0000
     13 O          -0.1321    5.7813   11.7656 O.2     1  UNL1        0.0000
     14 N          -1.3704    1.4861    6.7045 N.3     1  UNL1        0.0000
     15 N           0.2594    3.1234    7.8372 N.3     1  UNL1        0.0000
     16 N          -0.8186    2.3797   10.3044 N.3     1  UNL1        0.0000
     17 N          -2.4829    3.4274    8.5816 N.4     1  UNL1        0.0000
     18 H          -1.7673    4.1771    8.5633 H       1  UNL1        0.0000
     19 N           0.7392    6.0855   10.9786 N.pl3   1  UNL1        0.0000
     20 N          -1.6034    6.0624    6.3692 N.pl3   1  UNL1        0.0000
     21 C           1.1342    0.4282    9.4031 C.ar    1  UNL1        0.0000
     22 C           1.1716    1.0818   10.6704 C.ar    1  UNL1        0.0000
     23 C           2.2202    0.8089   11.5666 C.ar    1  UNL1        0.0000
     24 H           2.2171    1.3088   12.5252 H       1  UNL1        0.0000
     25 C           3.2296   -0.0597   11.2460 C.ar    1  UNL1        0.0000
     26 H           4.0302   -0.2556   11.9421 H       1  UNL1        0.0000
     27 C           3.2063   -0.7028   10.0040 C.ar    1  UNL1        0.0000
     28 H           3.9972   -1.3925    9.7468 H       1  UNL1        0.0000
     29 C           2.1932   -0.4722    9.1132 C.ar    1  UNL1        0.0000
     30 H           2.1637   -0.9755    8.1591 H       1  UNL1        0.0000
     31 C           0.1383    1.9734   11.0618 C.3     1  UNL1        0.0000
     32 H           0.1700    2.3212   12.0968 H       1  UNL1        0.0000
     33 C          -1.8272    3.2387   10.8981 C.3     1  UNL1        0.0000
     34 H          -1.3910    4.2271   11.0832 H       1  UNL1        0.0000
     35 H          -2.1629    2.8252   11.8549 H       1  UNL1        0.0000
     36 C          -3.0108    3.3809    9.9455 C.3     1  UNL1        0.0000
     37 H          -3.6815    2.5226   10.0178 H       1  UNL1        0.0000
     38 H          -3.5736    4.2918   10.1792 H       1  UNL1        0.0000
     39 C          -3.6385    5.7057    7.7136 C.ar    1  UNL1        0.0000
     40 C          -4.6438    6.2377    8.5016 C.ar    1  UNL1        0.0000
     41 H          -5.4179    5.5708    8.8476 H       1  UNL1        0.0000
     42 C          -4.6558    7.5885    8.8165 C.ar    1  UNL1        0.0000
     43 H          -5.4421    7.9854    9.4396 H       1  UNL1        0.0000
     44 C          -3.6585    8.4226    8.3346 C.ar    1  UNL1        0.0000
     45 H          -3.6574    9.4716    8.5861 H       1  UNL1        0.0000
     46 C          -2.6628    7.9086    7.5245 C.ar    1  UNL1        0.0000
     47 H          -1.8759    8.5311    7.1266 H       1  UNL1        0.0000
     48 C          -2.6512    6.5519    7.2205 C.ar    1  UNL1        0.0000
     49 C          -3.2039    0.0077    8.4258 C.ar    1  UNL1        0.0000
     50 C          -4.1611   -0.7806    9.1097 C.ar    1  UNL1        0.0000
     51 H          -4.1393   -0.7627   10.1889 H       1  UNL1        0.0000
     52 C          -5.0849   -1.5324    8.4334 C.ar    1  UNL1        0.0000
     53 H          -5.8060   -2.1172    8.9863 H       1  UNL1        0.0000
     54 C          -5.1071   -1.5513    7.0365 C.ar    1  UNL1        0.0000
     55 H          -5.8416   -2.1454    6.5153 H       1  UNL1        0.0000
     56 C          -4.1870   -0.8096    6.3424 C.ar    1  UNL1        0.0000
     57 H          -4.1903   -0.8145    5.2616 H       1  UNL1        0.0000
     58 C          -3.2272   -0.0241    7.0034 C.ar    1  UNL1        0.0000
     59 C          -2.2845    0.7148    6.2373 C.3     1  UNL1        0.0000
     60 H          -2.3546    0.5945    5.1551 H       1  UNL1        0.0000
     61 C          -0.4984    2.1654    5.7672 C.3     1  UNL1        0.0000
     62 H          -1.0562    3.0083    5.3519 H       1  UNL1        0.0000
     63 H          -0.1945    1.4918    4.9591 H       1  UNL1        0.0000
     64 C           0.7155    2.6846    6.5370 C.3     1  UNL1        0.0000
     65 H           1.4463    1.8753    6.6627 H       1  UNL1        0.0000
     66 H           1.1798    3.5254    6.0177 H       1  UNL1        0.0000
     67 C           1.8520    4.3977    9.5604 C.ar    1  UNL1        0.0000
     68 C           2.8772    3.4894    9.3696 C.ar    1  UNL1        0.0000
     69 H           2.9198    2.9539    8.4356 H       1  UNL1        0.0000
     70 C           3.8171    3.2775   10.3636 C.ar    1  UNL1        0.0000
     71 H           4.6177    2.5724   10.2063 H       1  UNL1        0.0000
     72 C           3.7197    3.9616   11.5658 C.ar    1  UNL1        0.0000
     73 H           4.4435    3.7903   12.3473 H       1  UNL1        0.0000
     74 C           2.6956    4.8699   11.7696 C.ar    1  UNL1        0.0000
     75 H           2.6114    5.4126   12.6992 H       1  UNL1        0.0000
     76 C           1.7759    5.0932   10.7524 C.ar    1  UNL1        0.0000
@<TRIPOS>BOND
     1    63    61    1
     2    60    59    1
     3    57    56    1
     4    62    61    1
     5     7    20    2
     6    61    64    1
     7    61    14    1
     8    66    64    1
     9     8     2    2
    10    59    14    1
    11    59    58    1
    12    56    58   ar
    13    56    54   ar
    14    20     6    2
    15    20    48    1
    16    55    54    1
    17    64    65    1
    18    64    15    1
    19    14     1    1
    20    58    49   ar
    21    54    52   ar
    22    47    46    1
    23    48    46   ar
    24    48    39   ar
    25     4     3    2
    26     2    39    1
    27     2     9    2
    28     2    17    1
    29    46    44   ar
    30    39    40   ar
    31    15     3    1
    32    15     1    1
    33    30    29    1
    34     3     5    2
    35     3    67    1
    36    44    45    1
    37    44    42   ar
    38    49    50   ar
    39    49    10    1
    40    52    53    1
    41    52    50   ar
    42    69    68    1
    43     1    11    1
    44     1    17    1
    45     1    10    1
    46     1    16    1
    47    40    42   ar
    48    40    41    1
    49    11    21    1
    50    18    17    1
    51    17    36    1
    52    42    43    1
    53    50    51    1
    54    29    21   ar
    55    29    27   ar
    56    68    67   ar
    57    68    70   ar
    58    21    22   ar
    59    67    76   ar
    60    28    27    1
    61    36    37    1
    62    36    38    1
    63    36    33    1
    64    27    25   ar
    65    71    70    1
    66    16    33    1
    67    16    31    1
    68    70    72   ar
    69    12    19    2
    70    22    31    1
    71    22    23   ar
    72    76    19    1
    73    76    74   ar
    74    33    34    1
    75    33    35    1
    76    19    13    2
    77    31    32    1
    78    25    23   ar
    79    25    26    1
    80    72    74   ar
    81    72    73    1
    82    23    24    1
    83    74    75    1
