@<TRIPOS>MOLECULE
CSD_code = VIYHIW | q = 0 | S = 0 | Stoichiometry = C12H13CoN12 | MND = 6
 38 41 0 0 0
SMALL
GASTEIGER

@<TRIPOS>ATOM
      1 CO          3.9679    1.5742    3.4973 Co.oh   1  UNL1        0.0000
      2 N           2.3739    0.2373    3.5707 N.4     1  UNL1        0.0000
      3 H           1.5158    0.7720    3.4720 H       1  UNL1        0.0000
      4 N           4.7504    0.2326    2.3159 N.pl3   1  UNL1        0.0000
      5 N           5.4684    2.6612    3.4572 N.2     1  UNL1        0.0000
      6 N           4.6328    0.4805    4.9893 N.pl3   1  UNL1        0.0000
      7 N           5.6162    3.8223    3.5775 N.2     1  UNL1        0.0000
      8 N           3.0914    2.6907    4.6824 N.2     1  UNL1        0.0000
      9 N           3.1761    2.3995    2.0470 N.2     1  UNL1        0.0000
     10 C           3.7830   -0.4395    5.4545 C.3     1  UNL1        0.0000
     11 N           3.4340    3.3323    1.3835 N.2     1  UNL1        0.0000
     12 C           2.3934   -0.4170    4.8758 C.3     1  UNL1        0.0000
     13 H           1.9850   -1.4368    4.8278 H       1  UNL1        0.0000
     14 H           1.7703    0.1622    5.5669 H       1  UNL1        0.0000
     15 C           5.8502    0.5549    5.5229 C.2     1  UNL1        0.0000
     16 H           6.4923    1.3251    5.1190 H       1  UNL1        0.0000
     17 C           2.5154   -0.6608    2.4282 C.3     1  UNL1        0.0000
     18 H           1.9990   -0.2101    1.5739 H       1  UNL1        0.0000
     19 H           2.0662   -1.6452    2.6221 H       1  UNL1        0.0000
     20 C           6.0208    0.1958    1.9225 C.3     1  UNL1        0.0000
     21 H           6.6084    1.0720    2.1580 H       1  UNL1        0.0000
     22 C           4.4308   -1.9310    1.3725 C.2     1  UNL1        0.0000
     23 H           3.7621   -2.7528    1.1670 H       1  UNL1        0.0000
     24 C           3.9601   -0.8079    2.0355 C.2     1  UNL1        0.0000
     25 C           4.1371   -1.3251    6.4612 C.2     1  UNL1        0.0000
     26 H           3.4209   -2.0532    6.8100 H       1  UNL1        0.0000
     27 N           3.3217    2.9417    5.8037 N.2     1  UNL1        0.0000
     28 N           5.9503    4.8978    3.6837 N.2     1  UNL1        0.0000
     29 C           6.5638   -0.8807    1.2465 C.2     1  UNL1        0.0000
     30 H           7.5971   -0.8596    0.9408 H       1  UNL1        0.0000
     31 C           5.4031   -1.2467    7.0169 C.2     1  UNL1        0.0000
     32 H           5.6976   -1.9175    7.8089 H       1  UNL1        0.0000
     33 C           5.7557   -1.9730    0.9694 C.2     1  UNL1        0.0000
     34 H           6.1436   -2.8335    0.4466 H       1  UNL1        0.0000
     35 C           6.2752   -0.2810    6.5372 C.2     1  UNL1        0.0000
     36 H           7.2668   -0.1716    6.9448 H       1  UNL1        0.0000
     37 N           3.4040    3.2190    6.9014 N.2     1  UNL1        0.0000
     38 N           3.5499    4.1731    0.6334 N.2     1  UNL1        0.0000
@<TRIPOS>BOND
     1    34    33    1
     2    38    11    2
     3    30    29    1
     4    33    29    2
     5    33    22    1
     6    23    22    1
     7    29    20    1
     8    22    24    2
     9    11     9    2
    10    18    17    1
    11    20    21    1
    12    20     4    1
    13    24     4    1
    14    24    17    1
    15     9     1    1
    16     4     1    1
    17    17    19    1
    18    17     2    1
    19     5     1    1
    20     5     7    2
    21     3     2    1
    22     1     2    1
    23     1     8    1
    24     1     6    1
    25     2    12    1
    26     7    28    2
    27     8    27    2
    28    13    12    1
    29    12    10    1
    30    12    14    1
    31     6    10    1
    32     6    15    1
    33    16    15    1
    34    10    25    1
    35    15    35    2
    36    27    37    2
    37    25    26    1
    38    25    31    2
    39    35    36    1
    40    35    31    1
    41    31    32    1
