@<TRIPOS>MOLECULE
CSD_code = VOPLOB | q = 1 | S = 0 | Stoichiometry = C26H37CoN5O3(1+) | MND = 6
 72 78 0 0 0
SMALL
GASTEIGER

@<TRIPOS>ATOM
      1 CO          0.2037    2.1301    1.6904 Co.oh   1  UNL1        0.0000
      2 N           0.3395    0.7927    0.3460 N.pl3   1  UNL1        0.0000
      3 N          -1.7045    1.5526    1.8119 N.4     1  UNL1        0.0000
      4 N          -0.2347    3.3627    3.2768 N.4     1  UNL1        0.0000
      5 N          -0.0345    3.5842    0.3109 N.4     1  UNL1        0.0000
      6 N           1.9855    2.5596    1.6554 N.am    1  UNL1        0.0000
      7 O           0.6946    0.9074    2.9831 O.3     1  UNL1        0.0000
      8 O           2.2637    0.3745    4.4223 O.2     1  UNL1        0.0000
      9 O           3.5541    3.9764    0.8059 O.2     1  UNL1        0.0000
     10 C           1.9180    0.9808    3.4380 C.2     1  UNL1        0.0000
     11 C           2.8347    1.9161    2.6419 C.3     1  UNL1        0.0000
     12 C           2.4245    3.5316    0.8665 C.2     1  UNL1        0.0000
     13 C           1.3160    4.0666   -0.0785 C.3     1  UNL1        0.0000
     14 C           4.0543    1.1584    2.0579 C.3     1  UNL1        0.0000
     15 C           5.1746    1.1601    3.0941 C.3     1  UNL1        0.0000
     16 C           3.7266   -0.2779    1.6552 C.3     1  UNL1        0.0000
     17 C           1.3031    0.6314   -0.5613 C.3     1  UNL1        0.0000
     18 C           1.3166   -0.4266   -1.4538 C.2     1  UNL1        0.0000
     19 C           0.2992   -1.3658   -1.3958 C.2     1  UNL1        0.0000
     20 C          -0.7018   -1.1967   -0.4529 C.2     1  UNL1        0.0000
     21 C          -0.6529   -0.1069    0.4032 C.2     1  UNL1        0.0000
     22 C          -1.6845    0.1236    1.4695 C.3     1  UNL1        0.0000
     23 C          -2.1632    1.8537    3.1782 C.3     1  UNL1        0.0000
     24 C          -1.6912    3.2691    3.5386 C.3     1  UNL1        0.0000
     25 C          -2.0628    3.5363    5.0022 C.3     1  UNL1        0.0000
     26 C          -3.5742    3.4214    5.1931 C.3     1  UNL1        0.0000
     27 C          -4.0677    2.0368    4.7896 C.3     1  UNL1        0.0000
     28 C          -3.6774    1.7307    3.3452 C.3     1  UNL1        0.0000
     29 C           0.2973    4.7391    3.4126 C.3     1  UNL1        0.0000
     30 C           1.6708    4.7472    4.0347 C.ar    1  UNL1        0.0000
     31 C           1.8931    4.0890    5.2408 C.ar    1  UNL1        0.0000
     32 C           3.1551    4.0687    5.8063 C.ar    1  UNL1        0.0000
     33 C           4.2064    4.7159    5.1775 C.ar    1  UNL1        0.0000
     34 C           3.9860    5.3985    3.9937 C.ar    1  UNL1        0.0000
     35 C           2.7233    5.4165    3.4263 C.ar    1  UNL1        0.0000
     36 H           4.8268    0.6993    4.0154 H       1  UNL1        0.0000
     37 H           5.4981    2.1762    3.3058 H       1  UNL1        0.0000
     38 H           6.0269    0.5974    2.7225 H       1  UNL1        0.0000
     39 H           3.5497   -0.8829    2.5409 H       1  UNL1        0.0000
     40 H           4.5633   -0.7080    1.1100 H       1  UNL1        0.0000
     41 H           2.8427   -0.3282    1.0227 H       1  UNL1        0.0000
     42 H          -0.5506    4.3694    0.7050 H       1  UNL1        0.0000
     43 H          -0.5382    3.3199   -0.5348 H       1  UNL1        0.0000
     44 H           3.2249    2.6777    3.3280 H       1  UNL1        0.0000
     45 H           1.3714    5.1572   -0.0802 H       1  UNL1        0.0000
     46 H           1.5603    3.7289   -1.0875 H       1  UNL1        0.0000
     47 H           4.3853    1.7201    1.1795 H       1  UNL1        0.0000
     48 H          -2.3416    2.0227    1.1654 H       1  UNL1        0.0000
     49 H           0.2119    2.8269    4.0288 H       1  UNL1        0.0000
     50 H          -1.3614   -0.4312    2.3566 H       1  UNL1        0.0000
     51 H          -2.6639   -0.2521    1.1565 H       1  UNL1        0.0000
     52 H           0.3391    5.2272    2.4366 H       1  UNL1        0.0000
     53 H          -0.3753    5.3303    4.0441 H       1  UNL1        0.0000
     54 H          -1.6577    1.1488    3.8461 H       1  UNL1        0.0000
     55 H          -2.1988    3.9991    2.8937 H       1  UNL1        0.0000
     56 H          -1.5605    2.8026    5.6367 H       1  UNL1        0.0000
     57 H          -1.7403    4.5293    5.3162 H       1  UNL1        0.0000
     58 H          -4.0776    4.1816    4.5919 H       1  UNL1        0.0000
     59 H          -3.8202    3.6096    6.2376 H       1  UNL1        0.0000
     60 H          -3.6301    1.2861    5.4495 H       1  UNL1        0.0000
     61 H          -5.1508    1.9833    4.8955 H       1  UNL1        0.0000
     62 H          -4.1799    2.4346    2.6755 H       1  UNL1        0.0000
     63 H          -4.0019    0.7223    3.0852 H       1  UNL1        0.0000
     64 H           2.0933    1.3673   -0.5679 H       1  UNL1        0.0000
     65 H           2.1200   -0.5142   -2.1665 H       1  UNL1        0.0000
     66 H           0.2851   -2.2099   -2.0666 H       1  UNL1        0.0000
     67 H          -1.5117   -1.9040   -0.3711 H       1  UNL1        0.0000
     68 H           2.5655    5.9501    2.5019 H       1  UNL1        0.0000
     69 H           4.7967    5.9095    3.4997 H       1  UNL1        0.0000
     70 H           5.1923    4.6921    5.6145 H       1  UNL1        0.0000
     71 H           3.3160    3.5447    6.7351 H       1  UNL1        0.0000
     72 H           1.0815    3.5928    5.7565 H       1  UNL1        0.0000
@<TRIPOS>BOND
     1    65    18    1
     2    66    19    1
     3    18    19    2
     4    18    17    1
     5    19    20    1
     6    46    13    1
     7    64    17    1
     8    17     2    1
     9    43     5    1
    10    20    67    1
    11    20    21    2
    12    45    13    1
    13    13     5    1
    14    13    12    1
    15     5    42    1
    16     5     1    1
    17     2    21    1
    18     2     1    1
    19    21    22    1
    20     9    12    2
    21    12     6   am
    22    41    16    1
    23    40    16    1
    24    51    22    1
    25    48     3    1
    26    47    14    1
    27    22     3    1
    28    22    50    1
    29    16    14    1
    30    16    39    1
    31     6     1    1
    32     6    11    1
    33     1     3    1
    34     1     7    1
    35     1     4    1
    36     3    23    1
    37    14    11    1
    38    14    15    1
    39    52    29    1
    40    68    35    1
    41    11    44    1
    42    11    10    1
    43    62    28    1
    44    38    15    1
    45    55    24    1
    46     7    10    1
    47    63    28    1
    48    15    37    1
    49    15    36    1
    50    23    28    1
    51    23    24    1
    52    23    54    1
    53     4    29    1
    54     4    24    1
    55     4    49    1
    56    28    27    1
    57    29    30    1
    58    29    53    1
    59    35    34   ar
    60    35    30   ar
    61    10     8    2
    62    69    34    1
    63    24    25    1
    64    34    33   ar
    65    30    31   ar
    66    58    26    1
    67    27    61    1
    68    27    26    1
    69    27    60    1
    70    25    26    1
    71    25    57    1
    72    25    56    1
    73    33    70    1
    74    33    32   ar
    75    26    59    1
    76    31    72    1
    77    31    32   ar
    78    32    71    1
