@<TRIPOS>MOLECULE
CSD_code = WAHNOK | q = -1 | S = 0 | Stoichiometry = C34H22CoN10O4(1-) | MND = 6
 71 80 0 0 0
SMALL
GASTEIGER

@<TRIPOS>ATOM
      1 CO          8.2779    0.5925   17.4885 Co.oh   1  UNL1        0.0000
      2 N           6.5118    0.6250   17.4372 N.pl3   1  UNL1        0.0000
      3 O           6.4033    3.4435   19.5046 O.2     1  UNL1        0.0000
      4 O           6.3990   -2.1633   15.3389 O.2     1  UNL1        0.0000
      5 N           8.0445    1.9889   18.7943 N.am    1  UNL1        0.0000
      6 N           8.0687   -0.8147   16.1871 N.am    1  UNL1        0.0000
      7 C           5.8690    1.5931   18.0800 C.3     1  UNL1        0.0000
      8 C           6.7931    2.4773   18.8612 C.2     1  UNL1        0.0000
      9 C           5.8659   -0.2727   16.7047 C.2     1  UNL1        0.0000
     10 C           6.7962   -1.2218   16.0132 C.2     1  UNL1        0.0000
     11 C           9.1053   -1.5879   15.6760 C.ar    1  UNL1        0.0000
     12 C           4.4828   -0.2468   16.6034 C.2     1  UNL1        0.0000
     13 H           3.9858   -0.9978   16.0103 H       1  UNL1        0.0000
     14 C           4.4885    1.6997   18.0071 C.2     1  UNL1        0.0000
     15 H           3.9964    2.5048   18.5295 H       1  UNL1        0.0000
     16 C           9.0815    2.6782   19.4169 C.ar    1  UNL1        0.0000
     17 N          11.2817   -3.0930   14.7639 N.ar    1  UNL1        0.0000
     18 C           3.7906    0.7589   17.2626 C.2     1  UNL1        0.0000
     19 H           2.7144    0.8126   17.1930 H       1  UNL1        0.0000
     20 C           9.1454   -2.9768   15.8313 C.ar    1  UNL1        0.0000
     21 H           8.3279   -3.4930   16.3071 H       1  UNL1        0.0000
     22 C          10.1774   -0.9887   15.0064 C.ar    1  UNL1        0.0000
     23 H          10.1768    0.0735   14.8160 H       1  UNL1        0.0000
     24 C          11.2267   -1.7816   14.5863 C.ar    1  UNL1        0.0000
     25 H          12.0761   -1.3449   14.0744 H       1  UNL1        0.0000
     26 C          10.2480   -3.6645   15.3635 C.ar    1  UNL1        0.0000
     27 H          10.3176   -4.7389   15.4824 H       1  UNL1        0.0000
     28 C           9.3011    4.0413   19.2038 C.ar    1  UNL1        0.0000
     29 H           8.6223    4.6114   18.5913 H       1  UNL1        0.0000
     30 N          11.2739    3.9914   20.5524 N.ar    1  UNL1        0.0000
     31 C           9.9759    2.0079   20.2577 C.ar    1  UNL1        0.0000
     32 H           9.8275    0.9650   20.4908 H       1  UNL1        0.0000
     33 C          10.4028    4.6343   19.7893 C.ar    1  UNL1        0.0000
     34 H          10.6117    5.6853   19.6321 H       1  UNL1        0.0000
     35 C          11.0443    2.7074   20.7829 C.ar    1  UNL1        0.0000
     36 H          11.7618    2.2145   21.4279 H       1  UNL1        0.0000
     37 N          10.0440    0.6250   17.5398 N.pl3   1  UNL1        0.0000
     38 O          10.1524    3.4436   15.4724 O.2     1  UNL1        0.0000
     39 O          10.1569   -2.1633   19.6380 O.2     1  UNL1        0.0000
     40 N           8.5113    1.9889   16.1827 N.am    1  UNL1        0.0000
     41 N           8.4872   -0.8147   18.7899 N.am    1  UNL1        0.0000
     42 C          10.6868    1.5932   16.8970 C.3     1  UNL1        0.0000
     43 C           9.7626    2.4774   16.1158 C.2     1  UNL1        0.0000
     44 C          10.6899   -0.2726   18.2723 C.2     1  UNL1        0.0000
     45 C           9.7597   -1.2217   18.9638 C.2     1  UNL1        0.0000
     46 C           7.4506   -1.5878   19.3012 C.ar    1  UNL1        0.0000
     47 C          12.0730   -0.2468   18.3734 C.2     1  UNL1        0.0000
     48 H          12.5701   -0.9979   18.9664 H       1  UNL1        0.0000
     49 C          12.0672    1.6998   16.9698 C.2     1  UNL1        0.0000
     50 H          12.5593    2.5049   16.4474 H       1  UNL1        0.0000
     51 C           7.4742    2.6783   15.5603 C.ar    1  UNL1        0.0000
     52 N           5.2743   -3.0928   20.2139 N.ar    1  UNL1        0.0000
     53 C          12.7652    0.7589   17.7142 C.2     1  UNL1        0.0000
     54 H          13.8415    0.8126   17.7837 H       1  UNL1        0.0000
     55 C           7.4105   -2.9767   19.1462 C.ar    1  UNL1        0.0000
     56 H           8.2279   -3.4930   18.6704 H       1  UNL1        0.0000
     57 C           6.3786   -0.9885   19.9709 C.ar    1  UNL1        0.0000
     58 H           6.3793    0.0738   20.1610 H       1  UNL1        0.0000
     59 C           5.3293   -1.7813   20.3913 C.ar    1  UNL1        0.0000
     60 H           4.4800   -1.3445   20.9032 H       1  UNL1        0.0000
     61 C           6.3079   -3.6643   19.6143 C.ar    1  UNL1        0.0000
     62 H           6.2383   -4.7388   19.4956 H       1  UNL1        0.0000
     63 C           7.2547    4.0414   15.7736 C.ar    1  UNL1        0.0000
     64 H           7.9335    4.6114   16.3862 H       1  UNL1        0.0000
     65 N           5.2817    3.9917   14.4253 N.ar    1  UNL1        0.0000
     66 C           6.5797    2.0082   14.7195 C.ar    1  UNL1        0.0000
     67 H           6.7281    0.9653   14.4862 H       1  UNL1        0.0000
     68 C           6.1529    4.6345   15.1883 C.ar    1  UNL1        0.0000
     69 H           5.9439    5.6854   15.3458 H       1  UNL1        0.0000
     70 C           5.5112    2.7077   14.1946 C.ar    1  UNL1        0.0000
     71 H           4.7936    2.2149   13.5496 H       1  UNL1        0.0000
@<TRIPOS>BOND
     1    71    70    1
     2    25    24    1
     3    70    65   ar
     4    70    66   ar
     5    65    68   ar
     6    67    66    1
     7    24    17   ar
     8    24    22   ar
     9    66    51   ar
    10    17    26   ar
    11    23    22    1
    12    22    11   ar
    13    68    69    1
    14    68    63   ar
    15     4    10    2
    16    26    27    1
    17    26    20   ar
    18    38    43    2
    19    51    63   ar
    20    51    40    1
    21    11    20   ar
    22    11     6    1
    23    63    64    1
    24    20    21    1
    25    13    12    1
    26    10     6   am
    27    10     9    1
    28    43    40   am
    29    43    42    1
    30    40     1    1
    31     6     1    1
    32    50    49    1
    33    12     9    2
    34    12    18    1
    35     9     2    1
    36    42    49    1
    37    42    37    1
    38    49    53    2
    39    19    18    1
    40    18    14    2
    41     2     1    1
    42     2     7    1
    43     1    37    1
    44     1    41    1
    45     1     5    1
    46    37    44    1
    47    53    54    1
    48    53    47    1
    49    14     7    1
    50    14    15    1
    51     7     8    1
    52    44    47    2
    53    44    45    1
    54    47    48    1
    55    29    28    1
    56    56    55    1
    57    41    45   am
    58    41    46    1
    59     5     8   am
    60     5    16    1
    61     8     3    2
    62    45    39    2
    63    55    46   ar
    64    55    61   ar
    65    28    16   ar
    66    28    33   ar
    67    46    57   ar
    68    16    31   ar
    69    62    61    1
    70    61    52   ar
    71    34    33    1
    72    33    30   ar
    73    57    58    1
    74    57    59   ar
    75    52    59   ar
    76    31    32    1
    77    31    35   ar
    78    59    60    1
    79    30    35   ar
    80    35    36    1
