@<TRIPOS>MOLECULE
CSD_code = WAZDEI | q = 0 | S = 0 | Stoichiometry = C32H25CoN8O2 | MND = 6
 68 77 0 0 0
SMALL
GASTEIGER

@<TRIPOS>ATOM
      1 CO          1.0983    2.5099   11.2829 Co.oh   1  UNL1        0.0000
      2 O           0.6189    4.2807   11.6585 O.2     1  UNL1        0.0000
      3 O           1.9270    3.0508    9.6695 O.2     1  UNL1        0.0000
      4 N           2.5378    4.1075   12.8656 N.2     1  UNL1        0.0000
      5 N           2.4885    2.8860   12.3574 N.pl3   1  UNL1        0.0000
      6 N           1.9099    0.7867   11.1374 N.pl3   1  UNL1        0.5000
      7 N           3.6324   -0.4397   11.8203 N.pl3   1  UNL1        0.5000
      8 H           4.4771   -0.6977   12.3013 H       1  UNL1        0.0000
      9 N          -0.1211    2.4594    8.8681 N.2     1  UNL1        0.0000
     10 N          -0.3166    2.1794   10.1688 N.pl3   1  UNL1        0.0000
     11 N          -0.0629    1.8759   12.6171 N.ar    1  UNL1        0.0000
     12 N          -2.1337    1.0195   12.9651 N.ar    1  UNL1        0.0000
     13 C           1.4820    4.7946   12.4327 C.2     1  UNL1        0.0000
     14 C           3.3812    1.9572   12.5754 C.2     1  UNL1        0.0000
     15 C           4.5902    2.1136   13.4387 C.3     1  UNL1        0.0000
     16 H           4.6214    3.1372   13.8022 H       1  UNL1        0.0000
     17 H           5.4994    1.9059   12.8753 H       1  UNL1        0.0000
     18 H           4.5462    1.4339   14.2902 H       1  UNL1        0.0000
     19 C           1.0948    2.9253    8.6999 C.2     1  UNL1        0.0000
     20 C          -1.4108    1.7095   10.6750 C.3     1  UNL1        0.0000
     21 C          -2.6481    1.4016    9.9090 C.3     1  UNL1        0.0000
     22 H          -2.4796    1.5863    8.8513 H       1  UNL1        0.0000
     23 H          -3.4631    2.0265   10.2696 H       1  UNL1        0.0000
     24 H          -2.9332    0.3646   10.0767 H       1  UNL1        0.0000
     25 C           1.3298    6.1851   12.8795 C.ar    1  UNL1        0.0000
     26 C           0.2449    6.9353   12.4295 C.ar    1  UNL1        0.0000
     27 H          -0.4633    6.4742   11.7581 H       1  UNL1        0.0000
     28 C           0.0908    8.2442   12.8436 C.ar    1  UNL1        0.0000
     29 H          -0.7501    8.8249   12.4942 H       1  UNL1        0.0000
     30 C           1.0143    8.8121   13.7072 C.ar    1  UNL1        0.0000
     31 H           0.8923    9.8358   14.0300 H       1  UNL1        0.0000
     32 C           2.0944    8.0685   14.1583 C.ar    1  UNL1        0.0000
     33 H           2.8111    8.5147   14.8321 H       1  UNL1        0.0000
     34 C           2.2560    6.7592   13.7484 C.ar    1  UNL1        0.0000
     35 H           3.0886    6.1649   14.0884 H       1  UNL1        0.0000
     36 C           3.0188    0.7700   11.8779 C.2     1  UNL1        0.0000
     37 C           1.7896   -0.4505   10.5661 C.ar    1  UNL1        0.0000
     38 C           0.8399   -0.9772    9.6967 C.ar    1  UNL1        0.0000
     39 H           0.0142   -0.3773    9.3526 H       1  UNL1        0.0000
     40 C           1.0046   -2.2850    9.2898 C.ar    1  UNL1        0.0000
     41 H           0.2848   -2.7222    8.6150 H       1  UNL1        0.0000
     42 C           2.0790   -3.0627    9.7250 C.ar    1  UNL1        0.0000
     43 H           2.1648   -4.0817    9.3803 H       1  UNL1        0.0000
     44 C           3.0360   -2.5560   10.5834 C.ar    1  UNL1        0.0000
     45 H           3.8694   -3.1544   10.9176 H       1  UNL1        0.0000
     46 C           2.8796   -1.2441   10.9961 C.ar    1  UNL1        0.0000
     47 C           1.5166    3.3024    7.3420 C.ar    1  UNL1        0.0000
     48 C           2.7937    3.8182    7.1351 C.ar    1  UNL1        0.0000
     49 H           3.4515    3.9328    7.9834 H       1  UNL1        0.0000
     50 C           3.1990    4.1774    5.8638 C.ar    1  UNL1        0.0000
     51 H           4.1898    4.5786    5.7067 H       1  UNL1        0.0000
     52 C           2.3352    4.0250    4.7912 C.ar    1  UNL1        0.0000
     53 H           2.6530    4.3068    3.7978 H       1  UNL1        0.0000
     54 C           1.0625    3.5128    4.9927 C.ar    1  UNL1        0.0000
     55 H           0.3905    3.3969    4.1548 H       1  UNL1        0.0000
     56 C           0.6508    3.1520    6.2611 C.ar    1  UNL1        0.0000
     57 H          -0.3355    2.7546    6.4380 H       1  UNL1        0.0000
     58 C          -1.2746    1.5090   12.0911 C.ar    1  UNL1        0.0000
     59 C          -0.1613    1.6095   13.9452 C.ar    1  UNL1        0.0000
     60 C           0.7167    1.7782   15.0118 C.ar    1  UNL1        0.0000
     61 H           1.6957    2.2109   14.8674 H       1  UNL1        0.0000
     62 C           0.2841    1.3942   16.2614 C.ar    1  UNL1        0.0000
     63 H           0.9418    1.5168   17.1105 H       1  UNL1        0.0000
     64 C          -0.9905    0.8521   16.4663 C.ar    1  UNL1        0.0000
     65 H          -1.2794    0.5672   17.4679 H       1  UNL1        0.0000
     66 C          -1.8771    0.6843   15.4278 C.ar    1  UNL1        0.0000
     67 H          -2.8634    0.2751   15.5812 H       1  UNL1        0.0000
     68 C          -1.4687    1.0659   14.1521 C.ar    1  UNL1        0.0000
@<TRIPOS>BOND
     1    53    52    1
     2    55    54    1
     3    52    54   ar
     4    52    50   ar
     5    54    56   ar
     6    51    50    1
     7    50    48   ar
     8    56    57    1
     9    56    47   ar
    10    48    47   ar
    11    48    49    1
    12    47    19    1
    13    41    40    1
    14    19     9    2
    15    19     3    1
    16    22    21    1
    17     9    10    1
    18    40    38   ar
    19    40    42   ar
    20    39    38    1
    21    43    42    1
    22     3     1    1
    23    38    37   ar
    24    42    44   ar
    25    21    24    1
    26    21    23    1
    27    21    20    1
    28    10    20    1
    29    10     1    1
    30    37    46   ar
    31    37     6    1
    32    44    45    1
    33    44    46   ar
    34    20    58    1
    35    46     7    1
    36     6     1    1
    37     6    36    1
    38     1     2    1
    39     1     5    1
    40     1    11    1
    41     2    13    1
    42    27    26    1
    43     7    36    1
    44     7     8    1
    45    36    14    2
    46    58    11   ar
    47    58    12   ar
    48     5    14    1
    49     5     4    1
    50    26    28   ar
    51    26    25   ar
    52    13     4    2
    53    13    25    1
    54    29    28    1
    55    14    15    1
    56    11    59   ar
    57    28    30   ar
    58    17    15    1
    59    25    34   ar
    60    12    68   ar
    61    15    16    1
    62    15    18    1
    63    30    31    1
    64    30    32   ar
    65    34    35    1
    66    34    32   ar
    67    59    68   ar
    68    59    60   ar
    69    68    66   ar
    70    32    33    1
    71    61    60    1
    72    60    62   ar
    73    66    67    1
    74    66    64   ar
    75    62    64   ar
    76    62    63    1
    77    64    65    1
