@<TRIPOS>MOLECULE
CSD_code = WENYOE | q = 1 | S = 0 | Stoichiometry = C22H28CoN6O6(1+) | MND = 6
 63 68 0 0 0
SMALL
GASTEIGER

@<TRIPOS>ATOM
      1 CO          0.0000    0.3437    4.7270 Co.oh   1  UNL1        0.0000
      2 O          -0.5518    1.6645    5.9081 O.3     1  UNL1        0.0000
      3 O           1.8561    6.1435    9.3953 O.2     1  UNL1        0.0000
      4 O           3.6564    5.0556    8.9391 O.2     1  UNL1        0.0000
      5 N           1.7664    0.3304    5.3673 N.3     1  UNL1        0.0000
      6 N           0.6600   -1.0643    3.3495 N.4     1  UNL1        0.0000
      7 N           2.4618    5.2423    8.8635 N.pl3   1  UNL1        0.0000
      8 C           1.6161    2.3271    6.6990 C.ar    1  UNL1        0.0000
      9 C           0.2009    2.4790    6.5568 C.ar    1  UNL1        0.0000
     10 C          -0.4149    3.5816    7.2076 C.ar    1  UNL1        0.0000
     11 H          -1.4817    3.6920    7.0951 H       1  UNL1        0.0000
     12 C           0.3113    4.4706    7.9469 C.ar    1  UNL1        0.0000
     13 H          -0.1585    5.3094    8.4385 H       1  UNL1        0.0000
     14 C           1.6988    4.3049    8.0750 C.ar    1  UNL1        0.0000
     15 C           2.3391    3.2550    7.4594 C.ar    1  UNL1        0.0000
     16 H           3.4088    3.1550    7.5749 H       1  UNL1        0.0000
     17 C           2.3103    1.2504    6.0820 C.3     1  UNL1        0.0000
     18 H           3.3855    1.2148    6.2592 H       1  UNL1        0.0000
     19 C           2.5869   -0.7092    4.7836 C.3     1  UNL1        0.0000
     20 H           2.4448   -1.6396    5.3486 H       1  UNL1        0.0000
     21 H           3.6497   -0.4495    4.8149 H       1  UNL1        0.0000
     22 C           2.1238   -0.9005    3.3442 C.3     1  UNL1        0.0000
     23 H           2.3553   -0.0000    2.7721 H       1  UNL1        0.0000
     24 H           2.6309   -1.7580    2.8933 H       1  UNL1        0.0000
     25 C           0.0986   -1.0178    1.9850 C.3     1  UNL1        0.0000
     26 H           0.3687   -0.0593    1.5399 H       1  UNL1        0.0000
     27 H          -0.9894   -1.0582    2.0651 H       1  UNL1        0.0000
     28 C           0.5715   -2.1628    1.0958 C.3     1  UNL1        0.0000
     29 H           1.6275   -2.0811    0.8564 H       1  UNL1        0.0000
     30 H           0.0191   -2.1389    0.1610 H       1  UNL1        0.0000
     31 H           0.3892   -3.1269    1.5679 H       1  UNL1        0.0000
     32 H           0.4719   -2.0079    3.6980 H       1  UNL1        0.0000
     33 O           0.5518    1.6645    3.5458 O.3     1  UNL1        0.0000
     34 O          -1.8561    6.1434    0.0586 O.2     1  UNL1        0.0000
     35 O          -3.6565    5.0559    0.5153 O.2     1  UNL1        0.0000
     36 N          -1.7664    0.3304    4.0867 N.3     1  UNL1        0.0000
     37 N          -0.6600   -1.0642    6.1045 N.4     1  UNL1        0.0000
     38 N          -2.4618    5.2422    0.5905 N.pl3   1  UNL1        0.0000
     39 C          -1.6161    2.3271    2.7551 C.ar    1  UNL1        0.0000
     40 C          -0.2009    2.4789    2.8972 C.ar    1  UNL1        0.0000
     41 C           0.4149    3.5815    2.2463 C.ar    1  UNL1        0.0000
     42 H           1.4817    3.6919    2.3586 H       1  UNL1        0.0000
     43 C          -0.3113    4.4705    1.5070 C.ar    1  UNL1        0.0000
     44 H           0.1585    5.3093    1.0153 H       1  UNL1        0.0000
     45 C          -1.6988    4.3049    1.3790 C.ar    1  UNL1        0.0000
     46 C          -2.3391    3.2550    1.9947 C.ar    1  UNL1        0.0000
     47 H          -3.4088    3.1551    1.8793 H       1  UNL1        0.0000
     48 C          -2.3103    1.2505    3.3721 C.3     1  UNL1        0.0000
     49 H          -3.3856    1.2149    3.1949 H       1  UNL1        0.0000
     50 C          -2.5869   -0.7091    4.6704 C.3     1  UNL1        0.0000
     51 H          -2.4449   -1.6396    4.1054 H       1  UNL1        0.0000
     52 H          -3.6497   -0.4495    4.6391 H       1  UNL1        0.0000
     53 C          -2.1238   -0.9005    6.1098 C.3     1  UNL1        0.0000
     54 H          -2.3552   -0.0000    6.6819 H       1  UNL1        0.0000
     55 H          -2.6309   -1.7580    6.5608 H       1  UNL1        0.0000
     56 C          -0.0985   -1.0178    7.4690 C.3     1  UNL1        0.0000
     57 H          -0.3687   -0.0593    7.9142 H       1  UNL1        0.0000
     58 H           0.9894   -1.0582    7.3889 H       1  UNL1        0.0000
     59 C          -0.5714   -2.1629    8.3582 C.3     1  UNL1        0.0000
     60 H          -1.6275   -2.0812    8.5976 H       1  UNL1        0.0000
     61 H          -0.0190   -2.1389    9.2929 H       1  UNL1        0.0000
     62 H          -0.3892   -3.1269    7.8861 H       1  UNL1        0.0000
     63 H          -0.4719   -2.0078    5.7560 H       1  UNL1        0.0000
@<TRIPOS>BOND
     1    34    38    2
     2    30    28    1
     3    35    38    2
     4    38    45    1
     5    29    28    1
     6    44    43    1
     7    28    31    1
     8    28    25    1
     9    45    43   ar
    10    45    46   ar
    11    43    41   ar
    12    26    25    1
    13    47    46    1
    14    25    27    1
    15    25     6    1
    16    46    39   ar
    17    41    42    1
    18    41    40   ar
    19    39    40   ar
    20    39    48    1
    21    23    22    1
    22    24    22    1
    23    40    33    1
    24    49    48    1
    25    22     6    1
    26    22    19    1
    27     6    32    1
    28     6     1    1
    29    48    36    1
    30    33     1    1
    31    36    50    1
    32    36     1    1
    33    51    50    1
    34    52    50    1
    35    50    53    1
    36     1     5    1
    37     1     2    1
    38     1    37    1
    39    19    21    1
    40    19    20    1
    41    19     5    1
    42     5    17    1
    43    63    37    1
    44     2     9    1
    45    17    18    1
    46    17     8    1
    47    37    53    1
    48    37    56    1
    49    53    55    1
    50    53    54    1
    51     9     8   ar
    52     9    10   ar
    53     8    15   ar
    54    11    10    1
    55    10    12   ar
    56    58    56    1
    57    15    16    1
    58    15    14   ar
    59    56    57    1
    60    56    59    1
    61    62    59    1
    62    12    14   ar
    63    12    13    1
    64    14     7    1
    65    59    60    1
    66    59    61    1
    67     7     4    2
    68     7     3    2
