@<TRIPOS>MOLECULE
CSD_code = WEPHAC | q = 0 | S = 0 | Stoichiometry = C32H32ClCoN4 | MND = 4
 70 75 0 0 0
SMALL
GASTEIGER

@<TRIPOS>ATOM
      1 CO          7.8655    1.5813    4.3439 Co.oh   1  UNL1        0.0000
      2 N           7.9658    2.7943    3.1216 N.pl3   1  UNL1        0.0000
      3 C          10.5662    0.9567    1.2135 C.3     1  UNL1        0.0000
      4 H          10.1207    0.8480    0.2249 H       1  UNL1        0.0000
      5 H          10.9907    0.0026    1.5174 H       1  UNL1        0.0000
      6 H          11.3672    1.6921    1.1386 H       1  UNL1        0.0000
      7 C           9.5352    1.4125    2.1968 C.3     1  UNL1        0.0000
      8 C           8.8108    2.6320    2.0529 C.2     1  UNL1        0.0000
      9 C           8.8846    3.5905    1.0519 C.2     1  UNL1        0.0000
     10 H           9.5515    3.4476    0.2157 H       1  UNL1        0.0000
     11 C           8.0964    4.7316    1.1403 C.2     1  UNL1        0.0000
     12 H           8.1462    5.4841    0.3684 H       1  UNL1        0.0000
     13 C           7.2469    4.9032    2.2259 C.2     1  UNL1        0.0000
     14 H           6.6334    5.7869    2.3092 H       1  UNL1        0.0000
     15 C           7.1925    3.9255    3.2098 C.2     1  UNL1        0.0000
     16 C           6.4162    3.8755    4.4027 C.2     1  UNL1        0.0000
     17 C           5.4605    4.9548    4.8015 C.3     1  UNL1        0.0000
     18 H           4.9697    4.7068    5.7396 H       1  UNL1        0.0000
     19 H           4.7020    5.0886    4.0304 H       1  UNL1        0.0000
     20 H           5.9874    5.9018    4.9174 H       1  UNL1        0.0000
     21 N           9.2096    0.7545    3.2883 N.pl3   1  UNL1        0.0000
     22 C           9.8637   -0.4440    3.6391 C.ar    1  UNL1        0.0000
     23 C           9.3054   -1.6711    3.2660 C.ar    1  UNL1        0.0000
     24 C           9.9086   -2.8405    3.7012 C.ar    1  UNL1        0.0000
     25 H           9.4798   -3.7918    3.4196 H       1  UNL1        0.0000
     26 C          11.0417   -2.8013    4.4935 C.ar    1  UNL1        0.0000
     27 H          11.4967   -3.7198    4.8327 H       1  UNL1        0.0000
     28 C          11.5866   -1.5840    4.8575 C.ar    1  UNL1        0.0000
     29 H          12.4654   -1.5523    5.4847 H       1  UNL1        0.0000
     30 C          11.0117   -0.3950    4.4369 C.ar    1  UNL1        0.0000
     31 C           8.0637   -1.6936    2.4289 C.3     1  UNL1        0.0000
     32 H           7.3181   -1.0240    2.8637 H       1  UNL1        0.0000
     33 H           7.6542   -2.6985    2.3695 H       1  UNL1        0.0000
     34 H           8.2729   -1.3428    1.4180 H       1  UNL1        0.0000
     35 C          11.5881    0.9290    4.8333 C.3     1  UNL1        0.0000
     36 H          10.7841    1.6144    5.1092 H       1  UNL1        0.0000
     37 H          12.1357    1.3747    4.0019 H       1  UNL1        0.0000
     38 H          12.2663    0.8147    5.6744 H       1  UNL1        0.0000
     39 N           6.6363    2.7798    5.1012 N.pl3   1  UNL1        0.0000
     40 C           5.9819    2.5685    6.3321 C.ar    1  UNL1        0.0000
     41 C           4.7927    1.8326    6.3675 C.ar    1  UNL1        0.0000
     42 C           4.1910    1.5928    7.5927 C.ar    1  UNL1        0.0000
     43 H           3.2726    1.0247    7.6282 H       1  UNL1        0.0000
     44 C           4.7532    2.0688    8.7637 C.ar    1  UNL1        0.0000
     45 H           4.2743    1.8735    9.7116 H       1  UNL1        0.0000
     46 C           5.9334    2.7881    8.7198 C.ar    1  UNL1        0.0000
     47 H           6.3773    3.1526    9.6349 H       1  UNL1        0.0000
     48 C           6.5605    3.0494    7.5113 C.ar    1  UNL1        0.0000
     49 C           4.2073    1.3127    5.0913 C.3     1  UNL1        0.0000
     50 H           3.3996    0.6139    5.2918 H       1  UNL1        0.0000
     51 H           4.9857    0.8101    4.5122 H       1  UNL1        0.0000
     52 H           3.8184    2.1302    4.4836 H       1  UNL1        0.0000
     53 C           7.8394    3.8282    7.4519 C.3     1  UNL1        0.0000
     54 H           8.5096    3.3888    6.7100 H       1  UNL1        0.0000
     55 H           8.3301    3.8372    8.4218 H       1  UNL1        0.0000
     56 H           7.6473    4.8596    7.1532 H       1  UNL1        0.0000
     57 N           7.7548    0.3402    5.4405 N.3     1  UNL1        0.0000
     58 C           7.8985   -0.7014    6.1202 C.3     1  UNL1        0.0000
     59 H           7.2367   -1.5618    5.9637 H       1  UNL1        0.0000
     60 C           8.9527   -0.9066    7.1114 C.ar    1  UNL1        0.0000
     61 C           9.2799   -2.1956    7.5301 C.ar    1  UNL1        0.0000
     62 H           8.7165   -3.0377    7.1554 H       1  UNL1        0.0000
     63 C          10.3313   -2.4099    8.3991 C.ar    1  UNL1        0.0000
     64 H          10.5924   -3.4090    8.7123 H       1  UNL1        0.0000
     65 C          11.0565   -1.3259    8.8679 C.ar    1  UNL1        0.0000
     66 C          10.7347   -0.0328    8.4834 C.ar    1  UNL1        0.0000
     67 H          11.3032    0.8007    8.8668 H       1  UNL1        0.0000
     68 C           9.6890    0.1687    7.6077 C.ar    1  UNL1        0.0000
     69 H           9.4214    1.1657    7.2926 H       1  UNL1        0.0000
     70 CL         12.3825   -1.5904    9.9498 Cl      1  UNL1        0.0000
@<TRIPOS>BOND
     1    10     9    1
     2     4     3    1
     3    12    11    1
     4     9    11    1
     5     9     8    2
     6     6     3    1
     7    11    13    2
     8     3     5    1
     9     3     7    1
    10    34    31    1
    11     8     7    1
    12     8     2    1
    13     7    21    1
    14    13    14    1
    15    13    15    1
    16    33    31    1
    17    31    32    1
    18    31    23    1
    19     2    15    1
    20     2     1    1
    21    15    16    2
    22    23    22   ar
    23    23    24   ar
    24    21    22    1
    25    21     1    1
    26    25    24    1
    27    22    30   ar
    28    24    26   ar
    29    37    35    1
    30    19    17    1
    31     1    39    1
    32     1    57    1
    33    16    17    1
    34    16    39    1
    35    30    35    1
    36    30    28   ar
    37    52    49    1
    38    26    27    1
    39    26    28   ar
    40    51    49    1
    41    17    20    1
    42    17    18    1
    43    35    36    1
    44    35    38    1
    45    28    29    1
    46    49    50    1
    47    49    41    1
    48    39    40    1
    49    57    58    1
    50    59    58    1
    51    58    60    1
    52    40    41   ar
    53    40    48   ar
    54    41    42   ar
    55    54    53    1
    56    60    61   ar
    57    60    68   ar
    58    56    53    1
    59    62    61    1
    60    69    68    1
    61    53    48    1
    62    53    55    1
    63    48    46   ar
    64    61    63   ar
    65    42    43    1
    66    42    44   ar
    67    68    66   ar
    68    63    64    1
    69    63    65   ar
    70    66    67    1
    71    66    65   ar
    72    46    44   ar
    73    46    47    1
    74    44    45    1
    75    65    70    1
