@<TRIPOS>MOLECULE
CSD_code = WIZJAT | q = 0 | S = 0 | Stoichiometry = C26H27Cl2CoN4O | MND = 6
 61 67 0 0 0
SMALL
GASTEIGER

@<TRIPOS>ATOM
      1 CO          4.4604    6.9463   10.0750 Co.oh   1  UNL1        0.0000
      2 CL          2.4012    6.8180    9.1439 Cl      1  UNL1        0.0000
      3 CL          3.8904    5.8457   11.8212 Cl      1  UNL1        0.0000
      4 O           6.2239    7.2551   10.7061 O.3     1  UNL1        0.0000
      5 N           4.9375    7.8388    8.6167 N.pl3   1  UNL1        0.0000
      6 N           5.0670    5.4035    9.0771 N.pl3   1  UNL1        0.0000
      7 N           3.7915   10.8537   10.1716 N.pl3   1  UNL1        0.0000
      8 H           3.8445   11.7054    9.6390 H       1  UNL1        0.0000
      9 N           3.9532    8.6978   10.6858 N.pl3   1  UNL1        0.0000
     10 C           4.1883    9.6233    9.7608 C.3     1  UNL1        0.0000
     11 C           5.9271    7.7508    6.4490 C.2     1  UNL1        0.0000
     12 C           5.4883    7.1438    7.6255 C.2     1  UNL1        0.0000
     13 C           4.7852    9.1684    8.5358 C.2     1  UNL1        0.0000
     14 C           4.9829    4.0346    9.4265 C.ar    1  UNL1        0.0000
     15 C           5.5395    5.7375    7.9198 C.2     1  UNL1        0.0000
     16 C           3.3714    9.3336   11.7479 C.ar    1  UNL1        0.0000
     17 C           5.7623    9.1280    6.3470 C.2     1  UNL1        0.0000
     18 H           6.0863    9.6444    5.4558 H       1  UNL1        0.0000
     19 C           3.2622   10.7085   11.4316 C.ar    1  UNL1        0.0000
     20 C           6.1282    4.8413    6.8770 C.3     1  UNL1        0.0000
     21 H           5.3269    4.4870    6.2215 H       1  UNL1        0.0000
     22 H           6.5838    3.9665    7.3458 H       1  UNL1        0.0000
     23 C           5.8799    3.4974   10.3596 C.ar    1  UNL1        0.0000
     24 C           7.1545    5.6230    6.0497 C.3     1  UNL1        0.0000
     25 H           7.9752    5.9323    6.7004 H       1  UNL1        0.0000
     26 H           7.5641    4.9742    5.2742 H       1  UNL1        0.0000
     27 C           5.1876    9.8476    7.3902 C.2     1  UNL1        0.0000
     28 H           5.0649   10.9167    7.3139 H       1  UNL1        0.0000
     29 C           2.7085   11.6183   12.3188 C.ar    1  UNL1        0.0000
     30 H           2.6263   12.6657   12.0717 H       1  UNL1        0.0000
     31 C           2.9168    8.8487   12.9717 C.ar    1  UNL1        0.0000
     32 H           2.9967    7.7968   13.1968 H       1  UNL1        0.0000
     33 C           4.8027    1.3359   10.1506 C.ar    1  UNL1        0.0000
     34 C           4.0040    3.2172    8.8416 C.ar    1  UNL1        0.0000
     35 C           5.7749    2.1576   10.6982 C.ar    1  UNL1        0.0000
     36 H           6.4717    1.7513   11.4174 H       1  UNL1        0.0000
     37 C           6.5339    6.8660    5.4039 C.3     1  UNL1        0.0000
     38 H           7.2867    7.4147    4.8349 H       1  UNL1        0.0000
     39 H           5.7491    6.5603    4.7038 H       1  UNL1        0.0000
     40 C           2.2650   11.1204   13.5274 C.ar    1  UNL1        0.0000
     41 H           1.8253   11.7960   14.2454 H       1  UNL1        0.0000
     42 C           3.9326    1.8855    9.2233 C.ar    1  UNL1        0.0000
     43 H           3.1676    1.2635    8.7803 H       1  UNL1        0.0000
     44 C           2.3672    9.7623   13.8445 C.ar    1  UNL1        0.0000
     45 H           2.0013    9.4234   14.8014 H       1  UNL1        0.0000
     46 C           6.9473    4.3242   10.9997 C.3     1  UNL1        0.0000
     47 H           7.2426    5.1637   10.3765 H       1  UNL1        0.0000
     48 H           7.8167    3.7128   11.2343 H       1  UNL1        0.0000
     49 H           6.5548    4.7368   11.9284 H       1  UNL1        0.0000
     50 C           3.0215    3.7199    7.8272 C.3     1  UNL1        0.0000
     51 H           2.8235    4.7811    7.9451 H       1  UNL1        0.0000
     52 H           2.0795    3.1873    7.9349 H       1  UNL1        0.0000
     53 H           3.3887    3.5390    6.8149 H       1  UNL1        0.0000
     54 C           4.6819   -0.0979   10.5664 C.3     1  UNL1        0.0000
     55 H           5.6525   -0.5075   10.8370 H       1  UNL1        0.0000
     56 H           4.2508   -0.6998    9.7697 H       1  UNL1        0.0000
     57 H           4.0302   -0.1732   11.4371 H       1  UNL1        0.0000
     58 C           6.5182    7.6726   11.9865 C.3     1  UNL1        0.0000
     59 H           6.3190    8.7487   12.1360 H       1  UNL1        0.0000
     60 H           7.5926    7.5002   12.1418 H       1  UNL1        0.0000
     61 H           5.9724    7.1127   12.7560 H       1  UNL1        0.0000
@<TRIPOS>BOND
     1    39    37    1
     2    38    37    1
     3    26    24    1
     4    37    24    1
     5    37    11    1
     6    18    17    1
     7    24    25    1
     8    24    20    1
     9    21    20    1
    10    17    11    2
    11    17    27    1
    12    11    12    1
    13    53    50    1
    14    20    22    1
    15    20    15    1
    16    28    27    1
    17    27    13    2
    18    12    15    2
    19    12     5    1
    20    50    52    1
    21    50    51    1
    22    50    34    1
    23    15     6    1
    24    13     5    1
    25    13    10    1
    26     5     1    1
    27    43    42    1
    28    34    42   ar
    29    34    14   ar
    30     6    14    1
    31     6     1    1
    32     2     1    1
    33    42    33   ar
    34    14    23   ar
    35     8     7    1
    36    10     7    1
    37    10     9    1
    38    56    54    1
    39     1     9    1
    40     1     4    1
    41     1     3    1
    42    33    54    1
    43    33    35   ar
    44     7    19    1
    45    23    35   ar
    46    23    46    1
    47    47    46    1
    48    54    55    1
    49    54    57    1
    50     9    16    1
    51    35    36    1
    52     4    58    1
    53    46    48    1
    54    46    49    1
    55    19    16   ar
    56    19    29   ar
    57    16    31   ar
    58    58    59    1
    59    58    60    1
    60    58    61    1
    61    30    29    1
    62    29    40   ar
    63    31    32    1
    64    31    44   ar
    65    40    44   ar
    66    40    41    1
    67    44    45    1
