@<TRIPOS>MOLECULE
CSD_code = WOMTID | q = 1 | S = 0 | Stoichiometry = C23H29CoN7O2(1+) | MND = 6
 62 67 0 0 0
SMALL
GASTEIGER

@<TRIPOS>ATOM
      1 CO          7.9346    2.6540    3.0040 Co.oh   1  UNL1        0.0000
      2 C           5.6854    4.0335    2.9413 C.ar    1  UNL1        0.0000
      3 O           6.2190    2.9881    2.3530 O.3     1  UNL1        0.0000
      4 C           4.3522    4.4003    2.7399 C.ar    1  UNL1        0.0000
      5 H           3.7616    3.8476    2.0250 H       1  UNL1        0.0000
      6 C           3.8041    5.4310    3.4756 C.ar    1  UNL1        0.0000
      7 H           2.7716    5.7061    3.3230 H       1  UNL1        0.0000
      8 C           4.5599    6.0842    4.4373 C.ar    1  UNL1        0.0000
      9 H           4.1103    6.8508    5.0488 H       1  UNL1        0.0000
     10 C           5.8915    5.7600    4.6268 C.ar    1  UNL1        0.0000
     11 H           6.4364    6.2499    5.4153 H       1  UNL1        0.0000
     12 C           6.4877    4.7793    3.8383 C.ar    1  UNL1        0.0000
     13 N           7.8072    4.3212    3.8892 N.pl3   1  UNL1        0.0000
     14 C           8.8398    4.9936    4.3474 C.3     1  UNL1        0.0000
     15 C           8.7903    6.4719    4.6247 C.3     1  UNL1        0.0000
     16 H           8.0355    6.9587    4.0122 H       1  UNL1        0.0000
     17 H           9.7628    6.9082    4.4051 H       1  UNL1        0.0000
     18 H           8.5755    6.6672    5.6742 H       1  UNL1        0.0000
     19 C          10.0873    4.3800    4.5810 C.2     1  UNL1        0.0000
     20 H          10.8477    4.9883    5.0441 H       1  UNL1        0.0000
     21 C          10.4020    3.0659    4.2882 C.2     1  UNL1        0.0000
     22 C          11.7432    2.5205    4.7240 C.3     1  UNL1        0.0000
     23 H          11.6537    2.0963    5.7234 H       1  UNL1        0.0000
     24 H          12.4960    3.3024    4.7530 H       1  UNL1        0.0000
     25 H          12.0580    1.7282    4.0494 H       1  UNL1        0.0000
     26 O           9.6525    2.2551    3.6467 O.2     1  UNL1        0.0000
     27 N           8.6677    3.5579    1.4460 N.pl3   1  UNL1        0.0000
     28 C           9.8654    4.0913    1.2910 C.3     1  UNL1        0.0000
     29 H          10.6518    4.0767    2.0188 H       1  UNL1        0.0000
     30 N           9.9850    4.6759    0.0917 N.pl3   1  UNL1        0.0000
     31 C          11.1371    5.3632   -0.4220 C.3     1  UNL1        0.0000
     32 H          11.4928    4.8783   -1.3326 H       1  UNL1        0.0000
     33 H          11.9310    5.3489    0.3220 H       1  UNL1        0.0000
     34 H          10.8855    6.3991   -0.6552 H       1  UNL1        0.0000
     35 C           8.7987    4.5064   -0.5564 C.2     1  UNL1        0.0000
     36 H           8.6244    4.8850   -1.5420 H       1  UNL1        0.0000
     37 C           7.9904    3.8108    0.2905 C.2     1  UNL1        0.0000
     38 H           6.9752    3.5004    0.1574 H       1  UNL1        0.0000
     39 N           7.9528    0.9423    2.0484 N.pl3   1  UNL1        0.0000
     40 C           7.0579    0.5333    1.1708 C.3     1  UNL1        0.0000
     41 H           6.2023    1.1016    0.8669 H       1  UNL1        0.0000
     42 N           7.3495   -0.6934    0.7165 N.pl3   1  UNL1        0.0000
     43 C           6.6076   -1.4576   -0.2476 C.3     1  UNL1        0.0000
     44 H           6.3108   -2.4173    0.1778 H       1  UNL1        0.0000
     45 H           7.2161   -1.6448   -1.1338 H       1  UNL1        0.0000
     46 H           5.7163   -0.9067   -0.5399 H       1  UNL1        0.0000
     47 C           8.4964   -1.0872    1.3395 C.2     1  UNL1        0.0000
     48 H           8.9513   -2.0379    1.1535 H       1  UNL1        0.0000
     49 C           8.8603   -0.0651    2.1642 C.2     1  UNL1        0.0000
     50 H           9.6998    0.0157    2.8224 H       1  UNL1        0.0000
     51 N           7.1484    1.8457    4.5514 N.pl3   1  UNL1        0.0000
     52 C           5.9655    1.2624    4.6012 C.3     1  UNL1        0.0000
     53 H           5.3326    1.0881    3.7542 H       1  UNL1        0.0000
     54 N           5.6404    0.9357    5.8581 N.pl3   1  UNL1        0.0000
     55 C           4.4294    0.3025    6.3006 C.3     1  UNL1        0.0000
     56 H           4.6524   -0.6559    6.7721 H       1  UNL1        0.0000
     57 H           3.7731    0.1379    5.4489 H       1  UNL1        0.0000
     58 H           3.9169    0.9365    7.0254 H       1  UNL1        0.0000
     59 C           6.6735    1.3286    6.6540 C.2     1  UNL1        0.0000
     60 H           6.6682    1.1837    7.7143 H       1  UNL1        0.0000
     61 C           7.6032    1.8939    5.8341 C.2     1  UNL1        0.0000
     62 H           8.5503    2.3241    6.0877 H       1  UNL1        0.0000
@<TRIPOS>BOND
     1    36    35    1
     2    32    31    1
     3    45    43    1
     4    34    31    1
     5    35    30    1
     6    35    37    2
     7    46    43    1
     8    31    30    1
     9    31    33    1
    10    43    44    1
    11    43    42    1
    12    30    28    1
    13    38    37    1
    14    37    27    1
    15    42    40    1
    16    42    47    1
    17    41    40    1
    18    48    47    1
    19    40    39    1
    20    28    27    1
    21    28    29    1
    22    47    49    2
    23    27     1    1
    24     5     4    1
    25    39    49    1
    26    39     1    1
    27    49    50    1
    28     3     2    1
    29     3     1    1
    30     4     2   ar
    31     4     6   ar
    32     2    12   ar
    33     1    26    1
    34     1    13    1
    35     1    51    1
    36     7     6    1
    37     6     8   ar
    38    26    21    1
    39    53    52    1
    40    12    13    1
    41    12    10   ar
    42    13    14    1
    43    16    15    1
    44    25    22    1
    45    21    19    2
    46    21    22    1
    47    14    19    1
    48    14    15    1
    49    17    15    1
    50     8    10   ar
    51     8     9    1
    52    51    52    1
    53    51    61    1
    54    19    20    1
    55    52    54    1
    56    15    18    1
    57    10    11    1
    58    22    24    1
    59    22    23    1
    60    57    55    1
    61    61    62    1
    62    61    59    2
    63    54    55    1
    64    54    59    1
    65    55    56    1
    66    55    58    1
    67    59    60    1
