@<TRIPOS>MOLECULE
CSD_code = WOMTEZ | q = -1 | S = 0 | Stoichiometry = C28H22CoN2O6(1-) | MND = 6
 59 66 0 0 0
SMALL
GASTEIGER

@<TRIPOS>ATOM
      1 CO          5.2042    5.3272    4.1965 Co.oh   1  UNL1        0.0000
      2 C           7.1322    5.1623    2.4130 C.ar    1  UNL1        0.0000
      3 O           7.0086    5.3500    3.6842 O.3     1  UNL1        0.0000
      4 C           8.3815    5.1365    1.7653 C.ar    1  UNL1        0.0000
      5 H           9.2727    5.2816    2.3583 H       1  UNL1        0.0000
      6 C           8.4552    4.9297    0.4066 C.ar    1  UNL1        0.0000
      7 H           9.4218    4.9117   -0.0810 H       1  UNL1        0.0000
      8 C           7.3033    4.7426   -0.3505 C.ar    1  UNL1        0.0000
      9 H           7.3780    4.5805   -1.4172 H       1  UNL1        0.0000
     10 C           6.0624    4.7637    0.2569 C.ar    1  UNL1        0.0000
     11 H           5.1799    4.6160   -0.3502 H       1  UNL1        0.0000
     12 C           5.9594    4.9718    1.6293 C.ar    1  UNL1        0.0000
     13 N           4.8046    5.0250    2.3937 N.pl3   1  UNL1        0.0000
     14 C           3.6135    4.8944    1.8980 C.3     1  UNL1        0.0000
     15 H           3.5006    4.7236    0.8268 H       1  UNL1        0.0000
     16 C           2.3999    4.9553    2.6318 C.ar    1  UNL1        0.0000
     17 C           2.3906    5.1745    4.0402 C.ar    1  UNL1        0.0000
     18 O           3.4290    5.3278    4.7683 O.3     1  UNL1        0.0000
     19 C           1.1033    5.2233    4.6831 C.ar    1  UNL1        0.0000
     20 O           1.1693    5.4402    6.0388 O.3     1  UNL1        0.0000
     21 C          -0.0285    5.5087    6.7538 C.3     1  UNL1        0.0000
     22 H          -0.6647    6.3344    6.4092 H       1  UNL1        0.0000
     23 H           0.2533    5.6849    7.7918 H       1  UNL1        0.0000
     24 H          -0.5977    4.5721    6.6906 H       1  UNL1        0.0000
     25 C          -0.0580    5.0648    3.9721 C.ar    1  UNL1        0.0000
     26 H          -1.0202    5.1033    4.4620 H       1  UNL1        0.0000
     27 C          -0.0193    4.8490    2.5867 C.ar    1  UNL1        0.0000
     28 H          -0.9473    4.7267    2.0460 H       1  UNL1        0.0000
     29 C           1.1820    4.7970    1.9397 C.ar    1  UNL1        0.0000
     30 H           1.2152    4.6320    0.8705 H       1  UNL1        0.0000
     31 C           5.6399    3.2280    5.7221 C.ar    1  UNL1        0.0000
     32 O           5.3056    3.4797    4.5007 O.3     1  UNL1        0.0000
     33 C           5.7859    1.9186    6.2169 C.ar    1  UNL1        0.0000
     34 H           5.6099    1.0912    5.5451 H       1  UNL1        0.0000
     35 C           6.1453    1.7080    7.5287 C.ar    1  UNL1        0.0000
     36 H           6.2544    0.6963    7.8986 H       1  UNL1        0.0000
     37 C           6.3704    2.7787    8.3877 C.ar    1  UNL1        0.0000
     38 H           6.6518    2.5967    9.4161 H       1  UNL1        0.0000
     39 C           6.2354    4.0758    7.9309 C.ar    1  UNL1        0.0000
     40 H           6.4151    4.8932    8.6155 H       1  UNL1        0.0000
     41 C           5.8733    4.3169    6.6087 C.ar    1  UNL1        0.0000
     42 N           5.6951    5.5436    5.9892 N.pl3   1  UNL1        0.0000
     43 C           5.8467    6.6793    6.5966 C.3     1  UNL1        0.0000
     44 H           6.1375    6.6838    7.6478 H       1  UNL1        0.0000
     45 C           5.6664    7.9609    6.0135 C.ar    1  UNL1        0.0000
     46 C           5.2851    8.1118    4.6484 C.ar    1  UNL1        0.0000
     47 O           5.0760    7.1519    3.8318 O.3     1  UNL1        0.0000
     48 C           5.1280    9.4574    4.1609 C.ar    1  UNL1        0.0000
     49 O           4.7578    9.5273    2.8391 O.3     1  UNL1        0.0000
     50 C           4.5830   10.7909    2.2702 C.3     1  UNL1        0.0000
     51 H           3.7851   11.3574    2.7678 H       1  UNL1        0.0000
     52 H           4.3008   10.6144    1.2323 H       1  UNL1        0.0000
     53 H           5.5071   11.3829    2.2951 H       1  UNL1        0.0000
     54 C           5.3372   10.5416    4.9732 C.ar    1  UNL1        0.0000
     55 H           5.2173   11.5483    4.5997 H       1  UNL1        0.0000
     56 C           5.7130   10.3638    6.3129 C.ar    1  UNL1        0.0000
     57 H           5.8730   11.2331    6.9352 H       1  UNL1        0.0000
     58 C           5.8714    9.1035    6.8136 C.ar    1  UNL1        0.0000
     59 H           6.1603    8.9630    7.8471 H       1  UNL1        0.0000
@<TRIPOS>BOND
     1     9     8    1
     2     8    10   ar
     3     8     6   ar
     4    11    10    1
     5     7     6    1
     6    10    12   ar
     7     6     4   ar
     8    15    14    1
     9    30    29    1
    10    52    50    1
    11    12    13    1
    12    12     2   ar
    13     4     5    1
    14     4     2   ar
    15    14    13    1
    16    14    16    1
    17    29    27   ar
    18    29    16   ar
    19    28    27    1
    20    50    53    1
    21    50    51    1
    22    50    49    1
    23    13     1    1
    24     2     3    1
    25    27    25   ar
    26    16    17   ar
    27    49    48    1
    28     3     1    1
    29    47     1    1
    30    47    46    1
    31    25    26    1
    32    25    19   ar
    33    17    19   ar
    34    17    18    1
    35    48    46   ar
    36    48    54   ar
    37     1    32    1
    38     1    18    1
    39     1    42    1
    40    32    31    1
    41    55    54    1
    42    46    45   ar
    43    19    20    1
    44    54    56   ar
    45    34    33    1
    46    31    33   ar
    47    31    41   ar
    48    42    43    1
    49    42    41    1
    50    45    43    1
    51    45    58   ar
    52    20    21    1
    53    33    35   ar
    54    56    58   ar
    55    56    57    1
    56    22    21    1
    57    43    44    1
    58    41    39   ar
    59    24    21    1
    60    21    23    1
    61    58    59    1
    62    35    36    1
    63    35    37   ar
    64    39    37   ar
    65    39    40    1
    66    37    38    1
