@<TRIPOS>MOLECULE
CSD_code = WORKET | q = 1 | S = 0 | Stoichiometry = C34H26CoN8(1+) | MND = 6
 69 78 0 0 0
SMALL
GASTEIGER

@<TRIPOS>ATOM
      1 CO         -0.2341    2.2164    3.8411 Co.oh   1  UNL1        0.0000
      2 N          -0.7748    0.8609    2.5767 N.pl3   1  UNL1        0.5000
      3 N           0.5321   -0.3535    4.0576 N.2     1  UNL1        0.5000
      4 N           0.6298    0.8145    4.5950 N.pl3   1  UNL1        0.0000
      5 N           0.4759    3.1978    5.3085 N.pl3   1  UNL1        0.0000
      6 N           1.1889    2.8166    2.6870 N.pl3   1  UNL1        0.5000
      7 N          -0.4704    4.3747    2.2490 N.2     1  UNL1        0.5000
      8 N          -1.0831    3.6420    3.1146 N.pl3   1  UNL1        0.0000
      9 N          -1.8801    1.9526    4.7767 N.pl3   1  UNL1        0.0000
     10 C          -0.2497   -0.3365    2.9571 C.2     1  UNL1        0.0000
     11 C          -0.5123   -1.5090    2.2370 C.2     1  UNL1        0.0000
     12 C          -1.3220   -1.4427    1.1270 C.2     1  UNL1        0.0000
     13 C          -1.8513   -0.2108    0.7463 C.2     1  UNL1        0.0000
     14 C          -1.5509    0.9084    1.4974 C.2     1  UNL1        0.0000
     15 C           1.3167    1.0626    5.7122 C.ar    1  UNL1        0.0000
     16 C           1.1908    2.4349    6.1182 C.ar    1  UNL1        0.0000
     17 C           1.8276    2.8389    7.3193 C.ar    1  UNL1        0.0000
     18 C           2.5364    1.9219    8.0397 C.ar    1  UNL1        0.0000
     19 C           2.6557    0.5734    7.6290 C.ar    1  UNL1        0.0000
     20 C           2.0574    0.1402    6.4827 C.ar    1  UNL1        0.0000
     21 C           0.1343    4.5238    5.6278 C.ar    1  UNL1        0.0000
     22 C          -0.8893    4.7775    6.5390 C.ar    1  UNL1        0.0000
     23 C          -1.2792    6.0787    6.7925 C.ar    1  UNL1        0.0000
     24 C          -0.6552    7.1326    6.1451 C.ar    1  UNL1        0.0000
     25 C           0.3713    6.8835    5.2490 C.ar    1  UNL1        0.0000
     26 C           0.7676    5.5854    4.9864 C.ar    1  UNL1        0.0000
     27 C           0.7791    3.9240    2.0076 C.2     1  UNL1        0.0000
     28 C           1.6249    4.5809    1.1042 C.2     1  UNL1        0.0000
     29 C           2.8956    4.0928    0.9047 C.2     1  UNL1        0.0000
     30 C           3.3043    2.9609    1.6079 C.2     1  UNL1        0.0000
     31 C           2.4226    2.3607    2.4850 C.2     1  UNL1        0.0000
     32 C          -2.3152    3.8964    3.5605 C.ar    1  UNL1        0.0000
     33 C          -2.7690    2.8894    4.4760 C.ar    1  UNL1        0.0000
     34 C          -4.0820    3.0060    4.9971 C.ar    1  UNL1        0.0000
     35 C          -4.8521    4.0739    4.6378 C.ar    1  UNL1        0.0000
     36 C          -4.3868    5.0697    3.7485 C.ar    1  UNL1        0.0000
     37 C          -3.1368    4.9892    3.2102 C.ar    1  UNL1        0.0000
     38 C          -2.2462    0.7887    5.4705 C.ar    1  UNL1        0.0000
     39 C          -1.6975    0.5010    6.7184 C.ar    1  UNL1        0.0000
     40 C          -2.0211   -0.6804    7.3585 C.ar    1  UNL1        0.0000
     41 C          -2.8882   -1.5834    6.7655 C.ar    1  UNL1        0.0000
     42 C          -3.4437   -1.2969    5.5290 C.ar    1  UNL1        0.0000
     43 C          -3.1282   -0.1182    4.8815 C.ar    1  UNL1        0.0000
     44 H          -0.0725   -2.4295    2.5816 H       1  UNL1        0.0000
     45 H          -1.5455   -2.3308    0.5571 H       1  UNL1        0.0000
     46 H          -2.4886   -0.1206   -0.1173 H       1  UNL1        0.0000
     47 H          -1.9497    1.8768    1.2251 H       1  UNL1        0.0000
     48 H           1.7430    3.8659    7.6394 H       1  UNL1        0.0000
     49 H           3.0234    2.2277    8.9533 H       1  UNL1        0.0000
     50 H           3.2269   -0.1091    8.2375 H       1  UNL1        0.0000
     51 H           2.1228   -0.8809    6.1426 H       1  UNL1        0.0000
     52 H          -1.3763    3.9499    7.0337 H       1  UNL1        0.0000
     53 H          -2.0741    6.2691    7.4971 H       1  UNL1        0.0000
     54 H          -0.9654    8.1468    6.3420 H       1  UNL1        0.0000
     55 H           0.8674    7.7027    4.7519 H       1  UNL1        0.0000
     56 H           1.5721    5.3860    4.2933 H       1  UNL1        0.0000
     57 H           1.2507    5.4538    0.5965 H       1  UNL1        0.0000
     58 H           3.5682    4.5788    0.2156 H       1  UNL1        0.0000
     59 H           4.2918    2.5509    1.4780 H       1  UNL1        0.0000
     60 H           2.7175    1.4823    3.0433 H       1  UNL1        0.0000
     61 H          -4.4437    2.2596    5.6876 H       1  UNL1        0.0000
     62 H          -5.8466    4.1707    5.0464 H       1  UNL1        0.0000
     63 H          -5.0345    5.8959    3.5032 H       1  UNL1        0.0000
     64 H          -2.7471    5.7297    2.5303 H       1  UNL1        0.0000
     65 H          -1.0294    1.2095    7.1851 H       1  UNL1        0.0000
     66 H          -1.5952   -0.8941    8.3267 H       1  UNL1        0.0000
     67 H          -3.1333   -2.5065    7.2668 H       1  UNL1        0.0000
     68 H          -4.1242   -1.9944    5.0650 H       1  UNL1        0.0000
     69 H          -3.5507    0.1102    3.9127 H       1  UNL1        0.0000
@<TRIPOS>BOND
     1    46    13    1
     2    58    29    1
     3    45    12    1
     4    57    28    1
     5    13    12    1
     6    13    14    2
     7    29    28    2
     8    29    30    1
     9    28    27    1
    10    12    11    2
    11    47    14    1
    12    59    30    1
    13    14     2    1
    14    30    31    2
    15    27     7    2
    16    27     6    1
    17    11    44    1
    18    11    10    1
    19     7     8    1
    20    31     6    1
    21    31    60    1
    22    64    37    1
    23     2    10    1
    24     2     1    1
    25     6     1    1
    26    10     3    2
    27     8    32    1
    28     8     1    1
    29    37    32   ar
    30    37    36   ar
    31    63    36    1
    32    32    33   ar
    33    36    35   ar
    34     1     4    1
    35     1     9    1
    36     1     5    1
    37    69    43    1
    38     3     4    1
    39    56    26    1
    40    33     9    1
    41    33    34   ar
    42     4    15    1
    43    35    34   ar
    44    35    62    1
    45    55    25    1
    46     9    38    1
    47    43    38   ar
    48    43    42   ar
    49    26    25   ar
    50    26    21   ar
    51    34    61    1
    52    68    42    1
    53    25    24   ar
    54     5    21    1
    55     5    16    1
    56    38    39   ar
    57    42    41   ar
    58    21    22   ar
    59    15    16   ar
    60    15    20   ar
    61    16    17   ar
    62    51    20    1
    63    24    54    1
    64    24    23   ar
    65    20    19   ar
    66    22    23   ar
    67    22    52    1
    68    39    65    1
    69    39    40   ar
    70    41    67    1
    71    41    40   ar
    72    23    53    1
    73    17    48    1
    74    17    18   ar
    75    40    66    1
    76    19    18   ar
    77    19    50    1
    78    18    49    1
