@<TRIPOS>MOLECULE
CSD_code = XAMTUA | q = 0 | S = 0 | Stoichiometry = C18H18CoNO6S3 | MND = 8
 47 48 0 0 0
SMALL
GASTEIGER

@<TRIPOS>ATOM
      1 CO         11.4985    8.9289    0.8789 Co.oh   1  UNL1        0.0000
      2 S           9.9765    7.7420   -0.1231 S.3     1  UNL1        0.0000
      3 S          10.7383   10.8388   -0.1198 S.2     1  UNL1        0.0000
      4 S          12.2617    6.6103   -0.9851 S.O2    1  UNL1        0.0000
      5 O           7.6393    7.1890   -1.6612 O.2     1  UNL1        0.0000
      6 O           7.0125    9.2976   -2.1494 O.3     1  UNL1        0.0000
      7 O           8.8811   11.4055   -3.0148 O.2     1  UNL1        0.0000
      8 O           7.8809   12.0222   -1.1026 O.3     1  UNL1        0.0000
      9 O          13.6552    6.8747   -1.1750 O.2     1  UNL1        0.0000
     10 O          11.8878    5.7091    0.0750 O.2     1  UNL1        0.0000
     11 N          11.4426    8.0542   -0.7713 N.3     1  UNL1        0.0000
     12 C           8.9984    8.9613   -0.9603 C.3     1  UNL1        0.0000
     13 C           9.4045   10.2598   -0.9829 C.2     1  UNL1        0.0000
     14 C           7.8399    8.3842   -1.6167 C.2     1  UNL1        0.0000
     15 C           5.8842    8.7743   -2.8371 C.3     1  UNL1        0.0000
     16 C           8.6960   11.2771   -1.8370 C.2     1  UNL1        0.0000
     17 C           7.1652   13.0333   -1.8034 C.3     1  UNL1        0.0000
     18 C          11.4791    6.1385   -2.5114 C.ar    1  UNL1        0.0000
     19 C          10.3001    5.4188   -2.4679 C.ar    1  UNL1        0.0000
     20 C           9.6201    5.1718   -3.6454 C.ar    1  UNL1        0.0000
     21 C          10.1090    5.6457   -4.8606 C.ar    1  UNL1        0.0000
     22 C          11.2989    6.3656   -4.8765 C.ar    1  UNL1        0.0000
     23 C          11.9844    6.6216   -3.7014 C.ar    1  UNL1        0.0000
     24 C           9.3500    5.3808   -6.1241 C.3     1  UNL1        0.0000
     25 C          12.2114    7.6403    2.3844 C.2     1  UNL1        0.0000
     26 C          11.4483    8.6987    2.9549 C.2     1  UNL1        0.0000
     27 C          12.0639    9.9107    2.5893 C.3     1  UNL1        0.0000
     28 C          13.2229    9.6019    1.8017 C.2     1  UNL1        0.0000
     29 C          13.3246    8.1987    1.7147 C.2     1  UNL1        0.0000
     30 H           6.2063    8.2001   -3.7079 H       1  UNL1        0.0000
     31 H           5.3074    8.1233   -2.1770 H       1  UNL1        0.0000
     32 H           5.2926    9.6325   -3.1447 H       1  UNL1        0.0000
     33 H           6.5622   12.5848   -2.5948 H       1  UNL1        0.0000
     34 H           6.5333   13.5219   -1.0667 H       1  UNL1        0.0000
     35 H           7.8603   13.7468   -2.2495 H       1  UNL1        0.0000
     36 H           9.9319    5.0621   -1.5193 H       1  UNL1        0.0000
     37 H           8.6939    4.6183   -3.6206 H       1  UNL1        0.0000
     38 H          11.6867    6.7378   -5.8133 H       1  UNL1        0.0000
     39 H          12.9033    7.1854   -3.6861 H       1  UNL1        0.0000
     40 H           9.8715    5.7857   -6.9870 H       1  UNL1        0.0000
     41 H           9.2147    4.3099   -6.2667 H       1  UNL1        0.0000
     42 H           8.3615    5.8345   -6.0695 H       1  UNL1        0.0000
     43 H          12.0341    6.5855    2.5160 H       1  UNL1        0.0000
     44 H          10.6170    8.5858    3.6316 H       1  UNL1        0.0000
     45 H          11.7888   10.8960    2.9324 H       1  UNL1        0.0000
     46 H          13.9585   10.3165    1.4680 H       1  UNL1        0.0000
     47 H          14.1146    7.6431    1.2386 H       1  UNL1        0.0000
@<TRIPOS>BOND
     1    40    24    1
     2    41    24    1
     3    24    42    1
     4    24    21    1
     5    38    22    1
     6    22    21   ar
     7    22    23   ar
     8    21    20   ar
     9    30    15    1
    10    23    39    1
    11    23    18   ar
    12    20    37    1
    13    20    19   ar
    14    32    15    1
    15     7    16    2
    16    15    31    1
    17    15     6    1
    18    33    17    1
    19    18    19   ar
    20    18     4    1
    21    19    36    1
    22    35    17    1
    23     6    14    1
    24    16     8    1
    25    16    13    1
    26    17     8    1
    27    17    34    1
    28     5    14    2
    29    14    12    1
    30     9     4    2
    31     4    11    1
    32     4    10    2
    33    13    12    1
    34    13     3    2
    35    12     2    1
    36    11     2    1
    37    11     1    1
    38     1    27    1
    39    47    29    1
    40    46    28    1
    41    29    28    2
    42    29    25    1
    43    28    27    1
    44    25    43    1
    45    25    26    2
    46    27    45    1
    47    27    26    1
    48    26    44    1
