@<TRIPOS>MOLECULE
CSD_code = XAMTIO | q = 0 | S = 0 | Stoichiometry = C12H14CoNO6S3 | MND = 8
 37 37 0 0 0
SMALL
GASTEIGER

@<TRIPOS>ATOM
      1 CO          0.3347    1.5657    5.7045 Co.oh   1  UNL1        0.0000
      2 S          -0.8733   -0.1053    6.4071 S.3     1  UNL1        0.0000
      3 S           2.0677    0.9693    7.0713 S.2     1  UNL1        0.0000
      4 S          -0.6925   -0.4934    3.7440 S.O2    1  UNL1        0.0000
      5 O           0.0779   -2.4578    9.3798 O.2     1  UNL1        0.0000
      6 O          -1.6943   -2.1771    8.0125 O.3     1  UNL1        0.0000
      7 O           2.3634   -0.4586   10.0867 O.2     1  UNL1        0.0000
      8 O           2.8133   -2.0515    8.5643 O.3     1  UNL1        0.0000
      9 O          -2.0070    0.0784    3.8762 O.2     1  UNL1        0.0000
     10 O           0.0846   -0.1193    2.6042 O.2     1  UNL1        0.0000
     11 N           0.1679   -0.2125    5.1398 N.3     1  UNL1        0.0000
     12 C           0.1277   -0.7975    7.6920 C.3     1  UNL1        0.0000
     13 C           1.3884   -0.3254    7.9093 C.2     1  UNL1        0.0000
     14 C          -0.4572   -1.8793    8.4636 C.2     1  UNL1        0.0000
     15 C          -2.3768   -3.2041    8.7186 C.3     1  UNL1        0.0000
     16 C           2.2292   -0.9453    9.0012 C.2     1  UNL1        0.0000
     17 C           3.5649   -2.7751    9.5340 C.3     1  UNL1        0.0000
     18 C          -0.8267   -2.2948    3.8102 C.3     1  UNL1        0.0000
     19 C          -0.6817    3.3737    5.9506 C.2     1  UNL1        0.0000
     20 C          -1.0373    2.8116    4.6900 C.2     1  UNL1        0.0000
     21 C           0.1295    2.7040    3.9020 C.2     1  UNL1        0.0000
     22 C           1.2224    3.1278    4.6873 C.2     1  UNL1        0.0000
     23 C           0.7116    3.5672    5.9542 C.3     1  UNL1        0.0000
     24 H          -2.4841   -2.9332    9.7708 H       1  UNL1        0.0000
     25 H          -1.8225   -4.1428    8.6528 H       1  UNL1        0.0000
     26 H          -3.3512   -3.2992    8.2462 H       1  UNL1        0.0000
     27 H           4.2636   -2.1095   10.0442 H       1  UNL1        0.0000
     28 H           2.8830   -3.2112   10.2661 H       1  UNL1        0.0000
     29 H           4.0955   -3.5520    8.9896 H       1  UNL1        0.0000
     30 H          -1.3756   -2.5529    4.7068 H       1  UNL1        0.0000
     31 H           0.1790   -2.6926    3.8308 H       1  UNL1        0.0000
     32 H          -1.3559   -2.6234    2.9249 H       1  UNL1        0.0000
     33 H          -1.3715    3.6909    6.7158 H       1  UNL1        0.0000
     34 H          -2.0371    2.5915    4.3536 H       1  UNL1        0.0000
     35 H           0.1700    2.3715    2.8788 H       1  UNL1        0.0000
     36 H           2.2400    3.2466    4.3506 H       1  UNL1        0.0000
     37 H           1.2865    4.0604    6.7222 H       1  UNL1        0.0000
@<TRIPOS>BOND
     1    10     4    2
     2    35    21    1
     3    32    18    1
     4     4    18    1
     5     4     9    2
     6     4    11    1
     7    18    31    1
     8    18    30    1
     9    21    22    2
    10    21    20    1
    11    36    22    1
    12    34    20    1
    13    22    23    1
    14    20    19    2
    15    11     1    1
    16    11     2    1
    17     1    23    1
    18    19    23    1
    19    19    33    1
    20    23    37    1
    21     2    12    1
    22     3    13    2
    23    12    13    1
    24    12    14    1
    25    13    16    1
    26     6    14    1
    27     6    15    1
    28    26    15    1
    29    14     5    2
    30     8    16    1
    31     8    17    1
    32    25    15    1
    33    15    24    1
    34    29    17    1
    35    16     7    2
    36    17    27    1
    37    17    28    1
