@<TRIPOS>MOLECULE
CSD_code = XAXYUQ | q = 0 | S = 0 | Stoichiometry = C7H19CoN12 | MND = 6
 39 40 0 0 0
SMALL
GASTEIGER

@<TRIPOS>ATOM
      1 CO         -1.1295    4.5379    7.1815 Co.oh   1  UNL1        0.0000
      2 N          -0.8521    2.5525    6.9102 N.4     1  UNL1        0.0000
      3 H          -1.2969    2.3993    6.0008 H       1  UNL1        0.0000
      4 H          -1.4276    2.0564    7.5948 H       1  UNL1        0.0000
      5 N           0.8625    5.1165    6.3170 N.4     1  UNL1        0.0000
      6 N          -1.5913    6.4816    7.4619 N.4     1  UNL1        0.0000
      7 H          -1.9782    6.8898    6.6073 H       1  UNL1        0.0000
      8 H          -2.3714    6.4095    8.1188 H       1  UNL1        0.0000
      9 N          -1.8988    4.5320    5.4574 N.2     1  UNL1        0.0000
     10 N          -2.7874    4.1841    7.9422 N.2     1  UNL1        0.0000
     11 N          -0.2830    4.5026    8.8494 N.2     1  UNL1        0.0000
     12 N          -2.4290    5.3868    4.8610 N.2     1  UNL1        0.0000
     13 N          -2.9188    6.1791    4.2081 N.2     1  UNL1        0.0000
     14 N          -3.5658    3.3402    7.7056 N.2     1  UNL1        0.0000
     15 N          -4.3897    2.5677    7.5962 N.2     1  UNL1        0.0000
     16 N          -0.1192    3.6294    9.6102 N.2     1  UNL1        0.0000
     17 N           0.1455    2.8546   10.3996 N.2     1  UNL1        0.0000
     18 C           0.4697    1.9174    6.8960 C.3     1  UNL1        0.0000
     19 H           0.8743    1.9193    7.9118 H       1  UNL1        0.0000
     20 H           0.3766    0.8721    6.5735 H       1  UNL1        0.0000
     21 C           1.4199    2.6504    5.9576 C.3     1  UNL1        0.0000
     22 H           2.3252    2.0501    5.8530 H       1  UNL1        0.0000
     23 H           0.9625    2.7321    4.9714 H       1  UNL1        0.0000
     24 C           1.8352    4.0206    6.4904 C.3     1  UNL1        0.0000
     25 H           2.0363    3.9157    7.5591 H       1  UNL1        0.0000
     26 H           2.7774    4.3126    6.0000 H       1  UNL1        0.0000
     27 C           1.4391    6.2673    7.0401 C.3     1  UNL1        0.0000
     28 H           1.6149    5.9534    8.0710 H       1  UNL1        0.0000
     29 H           2.4111    6.5129    6.5840 H       1  UNL1        0.0000
     30 C           0.5971    7.5400    7.0882 C.3     1  UNL1        0.0000
     31 H           1.2398    8.3371    7.4661 H       1  UNL1        0.0000
     32 H           0.2629    7.8367    6.0928 H       1  UNL1        0.0000
     33 C          -0.6037    7.4095    8.0156 C.3     1  UNL1        0.0000
     34 H          -0.2807    7.0191    8.9826 H       1  UNL1        0.0000
     35 H          -1.0567    8.3980    8.1672 H       1  UNL1        0.0000
     36 C           0.7921    5.4489    4.8917 C.3     1  UNL1        0.0000
     37 H           0.4030    4.6102    4.3222 H       1  UNL1        0.0000
     38 H           0.1244    6.2885    4.7217 H       1  UNL1        0.0000
     39 H           1.7865    5.7089    4.5062 H       1  UNL1        0.0000
@<TRIPOS>BOND
     1    13    12    2
     2    37    36    1
     3    39    36    1
     4    38    36    1
     5    12     9    2
     6    36     5    1
     7    23    21    1
     8     9     1    1
     9    22    21    1
    10    21    24    1
    11    21    18    1
    12    26    24    1
    13     3     2    1
    14    32    30    1
    15     5    24    1
    16     5    27    1
    17     5     1    1
    18    24    25    1
    19    20    18    1
    20    29    27    1
    21     7     6    1
    22    18     2    1
    23    18    19    1
    24     2     1    1
    25     2     4    1
    26    27    30    1
    27    27    28    1
    28    30    31    1
    29    30    33    1
    30     1     6    1
    31     1    10    1
    32     1    11    1
    33     6    33    1
    34     6     8    1
    35    15    14    2
    36    14    10    2
    37    33    35    1
    38    33    34    1
    39    11    16    2
    40    16    17    2
