@<TRIPOS>MOLECULE
CSD_code = XAXYIE | q = 0 | S = 0 | Stoichiometry = C6H17CoN12 | MND = 6
 36 37 0 0 0
SMALL
GASTEIGER

@<TRIPOS>ATOM
      1 CO          0.3784    2.0682    2.0852 Co.oh   1  UNL1        0.0000
      2 N           1.2067    1.7110    3.8644 N.4     1  UNL1        0.0000
      3 H           2.1688    1.3733    3.8227 H       1  UNL1        0.0000
      4 H           1.2363    2.6355    4.2980 H       1  UNL1        0.0000
      5 N          -1.3128    0.9743    2.8725 N.4     1  UNL1        0.0000
      6 N          -0.5453    2.4078    0.3355 N.4     1  UNL1        0.0000
      7 H          -0.0347    3.1329   -0.1742 H       1  UNL1        0.0000
      8 H          -0.4021    1.5422   -0.1917 H       1  UNL1        0.0000
      9 N           1.0474    0.4829    1.3218 N.2     1  UNL1        0.0000
     10 N           1.9137    2.9756    1.5903 N.2     1  UNL1        0.0000
     11 N          -0.3409    3.6379    2.8478 N.2     1  UNL1        0.0000
     12 N           1.7481   -0.3116    1.8173 N.2     1  UNL1        0.0000
     13 N           2.3867   -1.1541    2.2367 N.2     1  UNL1        0.0000
     14 N           2.3301    3.2058    0.5195 N.2     1  UNL1        0.0000
     15 N           2.8284    3.5088   -0.4545 N.2     1  UNL1        0.0000
     16 N          -0.4699    4.7260    2.4346 N.2     1  UNL1        0.0000
     17 N          -0.6960    5.7994    2.1412 N.2     1  UNL1        0.0000
     18 C           0.3728    0.8089    4.6637 C.3     1  UNL1        0.0000
     19 H           0.6401   -0.2224    4.4207 H       1  UNL1        0.0000
     20 H           0.5333    0.9542    5.7385 H       1  UNL1        0.0000
     21 C          -1.0903    1.0906    4.3234 C.3     1  UNL1        0.0000
     22 H          -1.3131    2.1177    4.6194 H       1  UNL1        0.0000
     23 H          -1.7516    0.4102    4.8768 H       1  UNL1        0.0000
     24 C          -2.5763    1.6382    2.5195 C.3     1  UNL1        0.0000
     25 H          -2.5486    2.6523    2.9231 H       1  UNL1        0.0000
     26 H          -3.4120    1.1013    2.9937 H       1  UNL1        0.0000
     27 C          -2.8447    1.7327    1.0167 C.3     1  UNL1        0.0000
     28 H          -2.7291    0.7589    0.5399 H       1  UNL1        0.0000
     29 H          -3.8851    2.0370    0.8885 H       1  UNL1        0.0000
     30 C          -1.9720    2.7601    0.3007 C.3     1  UNL1        0.0000
     31 H          -2.1015    3.7398    0.7663 H       1  UNL1        0.0000
     32 H          -2.3076    2.8381   -0.7418 H       1  UNL1        0.0000
     33 C          -1.4109   -0.4456    2.5243 C.3     1  UNL1        0.0000
     34 H          -1.4135   -0.5789    1.4465 H       1  UNL1        0.0000
     35 H          -0.5610   -0.9991    2.9121 H       1  UNL1        0.0000
     36 H          -2.3276   -0.8803    2.9416 H       1  UNL1        0.0000
@<TRIPOS>BOND
     1    32    30    1
     2    15    14    2
     3     8     6    1
     4     7     6    1
     5    30     6    1
     6    30    31    1
     7    30    27    1
     8     6     1    1
     9    14    10    2
    10    28    27    1
    11    29    27    1
    12    27    24    1
    13     9    12    2
    14     9     1    1
    15    34    33    1
    16    10     1    1
    17    12    13    2
    18     1    11    1
    19     1     5    1
    20     1     2    1
    21    17    16    2
    22    16    11    2
    23    24     5    1
    24    24    25    1
    25    24    26    1
    26    33     5    1
    27    33    35    1
    28    33    36    1
    29     5    21    1
    30     3     2    1
    31     2     4    1
    32     2    18    1
    33    21    22    1
    34    21    18    1
    35    21    23    1
    36    19    18    1
    37    18    20    1
