@<TRIPOS>MOLECULE
CSD_code = XAXYEA | q = 0 | S = 0 | Stoichiometry = C5H15CoN12 | MND = 6
 33 34 0 0 0
SMALL
GASTEIGER

@<TRIPOS>ATOM
      1 CO         -1.3850    2.9076    8.0562 Co.oh   1  UNL1        0.0000
      2 N          -1.5772    2.9135   10.0595 N.4     1  UNL1        0.0000
      3 H          -2.4524    3.2940   10.4251 H       1  UNL1        0.0000
      4 H          -0.8270    3.5223   10.3954 H       1  UNL1        0.0000
      5 N          -0.6532    0.9956    8.3275 N.4     1  UNL1        0.0000
      6 H          -1.4864    0.4196    8.1881 H       1  UNL1        0.0000
      7 N          -1.1732    2.8061    6.0747 N.4     1  UNL1        0.0000
      8 H          -2.0831    2.4541    5.7689 H       1  UNL1        0.0000
      9 H          -1.1169    3.7713    5.7441 H       1  UNL1        0.0000
     10 N          -3.0887    2.1036    7.8386 N.2     1  UNL1        0.0000
     11 N          -2.0732    4.6120    7.8218 N.2     1  UNL1        0.0000
     12 N           0.3493    3.5885    8.3272 N.2     1  UNL1        0.0000
     13 N          -4.0026    2.0911    8.5704 N.2     1  UNL1        0.0000
     14 N          -4.9200    1.9763    9.2306 N.2     1  UNL1        0.0000
     15 N          -2.3547    5.3921    8.6501 N.2     1  UNL1        0.0000
     16 N          -2.6678    6.2249    9.3549 N.2     1  UNL1        0.0000
     17 N           1.1081    4.0779    7.5840 N.2     1  UNL1        0.0000
     18 N           1.9374    4.5161    6.9420 N.2     1  UNL1        0.0000
     19 C          -1.3672    1.5540   10.5734 C.3     1  UNL1        0.0000
     20 H          -1.0869    1.5597   11.6327 H       1  UNL1        0.0000
     21 H          -2.3005    0.9926   10.4676 H       1  UNL1        0.0000
     22 C          -0.2710    0.8995    9.7364 C.3     1  UNL1        0.0000
     23 H           0.6641    1.4503    9.8690 H       1  UNL1        0.0000
     24 H          -0.1164   -0.1423   10.0472 H       1  UNL1        0.0000
     25 C           0.3816    0.5010    7.4235 C.3     1  UNL1        0.0000
     26 H           1.2808    1.1059    7.5664 H       1  UNL1        0.0000
     27 H           0.6296   -0.5425    7.6669 H       1  UNL1        0.0000
     28 C          -0.0679    0.5867    5.9663 C.3     1  UNL1        0.0000
     29 H           0.6320    0.0170    5.3539 H       1  UNL1        0.0000
     30 H          -1.0561    0.1318    5.8616 H       1  UNL1        0.0000
     31 C          -0.1099    2.0199    5.4393 C.3     1  UNL1        0.0000
     32 H           0.8506    2.5071    5.6258 H       1  UNL1        0.0000
     33 H          -0.2663    1.9930    4.3534 H       1  UNL1        0.0000
@<TRIPOS>BOND
     1    33    31    1
     2    29    28    1
     3    31    32    1
     4    31    28    1
     5    31     7    1
     6     9     7    1
     7     8     7    1
     8    30    28    1
     9    28    25    1
    10     7     1    1
    11    18    17    2
    12    25    26    1
    13    25    27    1
    14    25     5    1
    15    17    12    2
    16    11     1    1
    17    11    15    2
    18    10     1    1
    19    10    13    2
    20     1    12    1
    21     1     5    1
    22     1     2    1
    23     6     5    1
    24     5    22    1
    25    13    14    2
    26    15    16    2
    27    22    23    1
    28    22    24    1
    29    22    19    1
    30     2     4    1
    31     2     3    1
    32     2    19    1
    33    21    19    1
    34    19    20    1
