@<TRIPOS>MOLECULE
CSD_code = XEHSOV | q = 0 | S = 0 | Stoichiometry = C27H34CoN3O | MND = 4
 66 70 0 0 0
SMALL
GASTEIGER

@<TRIPOS>ATOM
      1 CO          4.5151   11.8176    1.4625 Co.oh   1  UNL1        0.0000
      2 O           2.9453   12.5745    1.4316 O.3     1  UNL1        0.0000
      3 H           2.1407   12.0635    1.3207 H       1  UNL1        0.0000
      4 N           4.6821   11.4856   -0.2908 N.pl3   1  UNL1        0.0000
      5 N           6.3158   11.4221    1.4526 N.pl3   1  UNL1        0.0000
      6 N           4.6830   11.4467    3.1923 N.pl3   1  UNL1        0.0000
      7 C           6.0230   11.4810   -0.8721 C.3     1  UNL1        0.0000
      8 C           6.9502   11.2326    0.2962 C.3     1  UNL1        0.0000
      9 C           8.2949   10.9058    0.2711 C.2     1  UNL1        0.0000
     10 H           8.8036   10.7385   -0.6646 H       1  UNL1        0.0000
     11 C           8.9752   10.7932    1.4760 C.2     1  UNL1        0.0000
     12 H          10.0214   10.5272    1.4850 H       1  UNL1        0.0000
     13 C           8.3069   11.0339    2.6709 C.2     1  UNL1        0.0000
     14 H           8.8228   10.9690    3.6154 H       1  UNL1        0.0000
     15 C           6.9630   11.3478    2.6198 C.2     1  UNL1        0.0000
     16 C           6.0148   11.6978    3.7459 C.3     1  UNL1        0.0000
     17 C           6.3870   12.8872   -1.4062 C.3     1  UNL1        0.0000
     18 H           5.8417   13.0833   -2.3237 H       1  UNL1        0.0000
     19 H           7.4541   12.9509   -1.6106 H       1  UNL1        0.0000
     20 H           6.1191   13.6379   -0.6661 H       1  UNL1        0.0000
     21 C           6.2290   10.4626   -1.9994 C.3     1  UNL1        0.0000
     22 H           6.1589    9.4457   -1.6258 H       1  UNL1        0.0000
     23 H           7.2096   10.6030   -2.4478 H       1  UNL1        0.0000
     24 H           5.4739   10.6035   -2.7687 H       1  UNL1        0.0000
     25 C           6.3271   10.9801    5.0601 C.3     1  UNL1        0.0000
     26 H           5.5276   11.1579    5.7751 H       1  UNL1        0.0000
     27 H           7.2545   11.3678    5.4758 H       1  UNL1        0.0000
     28 H           6.4309    9.9097    4.9186 H       1  UNL1        0.0000
     29 C           6.1774   13.2208    3.9682 C.3     1  UNL1        0.0000
     30 H           5.8302   13.7523    3.0825 H       1  UNL1        0.0000
     31 H           7.2197   13.4717    4.1574 H       1  UNL1        0.0000
     32 H           5.5779   13.5333    4.8180 H       1  UNL1        0.0000
     33 C           3.6268   10.9681   -1.0681 C.ar    1  UNL1        0.0000
     34 C           2.8301   11.8442   -1.8291 C.ar    1  UNL1        0.0000
     35 C           1.8228   11.3314   -2.6324 C.ar    1  UNL1        0.0000
     36 H           1.2248   12.0137   -3.2207 H       1  UNL1        0.0000
     37 C           1.5693    9.9737   -2.6882 C.ar    1  UNL1        0.0000
     38 H           0.7876    9.5892   -3.3269 H       1  UNL1        0.0000
     39 C           2.3068    9.1187   -1.8935 C.ar    1  UNL1        0.0000
     40 H           2.0930    8.0587   -1.8954 H       1  UNL1        0.0000
     41 C           3.3239    9.5968   -1.0797 C.ar    1  UNL1        0.0000
     42 C           3.0252   13.3287   -1.7618 C.3     1  UNL1        0.0000
     43 H           3.4069   13.6027   -0.7811 H       1  UNL1        0.0000
     44 H           2.0774   13.8356   -1.9311 H       1  UNL1        0.0000
     45 H           3.7263   13.6716   -2.5222 H       1  UNL1        0.0000
     46 C           4.0387    8.6256   -0.1862 C.3     1  UNL1        0.0000
     47 H           4.5722    7.8741   -0.7689 H       1  UNL1        0.0000
     48 H           3.3126    8.1071    0.4392 H       1  UNL1        0.0000
     49 H           4.7408    9.1471    0.4602 H       1  UNL1        0.0000
     50 C           3.7887   10.6490    3.9257 C.ar    1  UNL1        0.0000
     51 C           3.9055    9.2510    3.9971 C.ar    1  UNL1        0.0000
     52 C           2.9789    8.5219    4.7308 C.ar    1  UNL1        0.0000
     53 H           3.0786    7.4458    4.7732 H       1  UNL1        0.0000
     54 C           1.9418    9.1438    5.3963 C.ar    1  UNL1        0.0000
     55 H           1.2313    8.5618    5.9646 H       1  UNL1        0.0000
     56 C           1.8196   10.5194    5.3222 C.ar    1  UNL1        0.0000
     57 H           1.0075   11.0148    5.8359 H       1  UNL1        0.0000
     58 C           2.7248   11.2799    4.6008 C.ar    1  UNL1        0.0000
     59 C           4.9833    8.4845    3.2820 C.3     1  UNL1        0.0000
     60 H           5.6054    9.1357    2.6751 H       1  UNL1        0.0000
     61 H           4.5339    7.7325    2.6350 H       1  UNL1        0.0000
     62 H           5.6175    7.9586    3.9972 H       1  UNL1        0.0000
     63 C           2.5767   12.7683    4.5481 C.3     1  UNL1        0.0000
     64 H           1.5885   13.0674    4.8906 H       1  UNL1        0.0000
     65 H           2.7306   13.1145    3.5261 H       1  UNL1        0.0000
     66 H           3.3193   13.2516    5.1828 H       1  UNL1        0.0000
@<TRIPOS>BOND
     1    38    37    1
     2    36    35    1
     3    24    21    1
     4    37    35   ar
     5    37    39   ar
     6    35    34   ar
     7    45    42    1
     8    23    21    1
     9    18    17    1
    10    21    22    1
    11    21     7    1
    12    44    42    1
    13    40    39    1
    14    39    41   ar
    15    34    42    1
    16    34    33   ar
    17    42    43    1
    18    19    17    1
    19    17     7    1
    20    17    20    1
    21    41    33   ar
    22    41    46    1
    23    33     4    1
    24     7     4    1
    25     7     8    1
    26    47    46    1
    27    10     9    1
    28     4     1    1
    29    46    48    1
    30    46    49    1
    31     9     8    1
    32     9    11    2
    33     8     5    1
    34     3     2    1
    35     2     1    1
    36     5     1    1
    37     5    15    1
    38     1     6    1
    39    11    12    1
    40    11    13    1
    41    15    13    2
    42    15    16    1
    43    61    59    1
    44    13    14    1
    45    60    59    1
    46    30    29    1
    47     6    16    1
    48     6    50    1
    49    59    51    1
    50    59    62    1
    51    65    63    1
    52    16    29    1
    53    16    25    1
    54    50    51   ar
    55    50    58   ar
    56    29    31    1
    57    29    32    1
    58    51    52   ar
    59    63    58    1
    60    63    64    1
    61    63    66    1
    62    58    56   ar
    63    52    53    1
    64    52    54   ar
    65    28    25    1
    66    25    27    1
    67    25    26    1
    68    56    54   ar
    69    56    57    1
    70    54    55    1
