@<TRIPOS>MOLECULE
CSD_code = XETBAB | q = 1 | S = 0 | Stoichiometry = C17H42CoNP3(1+) | MND = 6
 64 60 0 0 0
SMALL
GASTEIGER

@<TRIPOS>ATOM
      1 CO          3.9238    2.8408    5.5646 Co.oh   1  UNL1        0.0000
      2 P           3.4957    1.0816    4.1204 P.3     2  UNL2        0.0000
      3 P           3.6379    4.5322    4.1559 P.3     3  UNL3        0.0000
      4 P           6.2335    3.0039    5.6600 P.3     4  UNL4        0.0000
      5 N           0.5428    4.1877    6.3408 N.2     1  UNL1        0.0000
      6 C           3.7640    1.4836    7.0713 C.3     1  UNL1        0.0000
      7 H           2.8253    0.9513    6.9720 H       1  UNL1        0.0000
      8 H           4.5768    0.8400    7.3800 H       1  UNL1        0.0000
      9 C           3.7745    2.8046    7.5348 C.3     1  UNL1        0.0000
     10 H           4.5862    3.1735    8.1520 H       1  UNL1        0.0000
     11 C           2.7233    3.7062    7.2133 C.3     1  UNL1        0.0000
     12 H           2.8211    4.7368    7.5372 H       1  UNL1        0.0000
     13 C           1.5288    3.3221    6.6363 C.2     1  UNL1        0.0000
     14 H           1.2910    2.2818    6.4764 H       1  UNL1        0.0000
     15 C          -0.8687    3.8471    6.1543 C.3     1  UNL1        0.0000
     16 C          -1.0223    2.6980    5.1579 C.3     1  UNL1        0.0000
     17 H          -0.5021    2.9215    4.2299 H       1  UNL1        0.0000
     18 H          -2.0752    2.5564    4.9326 H       1  UNL1        0.0000
     19 H          -0.6423    1.7643    5.5624 H       1  UNL1        0.0000
     20 C          -1.5587    5.0991    5.6120 C.3     1  UNL1        0.0000
     21 H          -1.4590    5.9278    6.3101 H       1  UNL1        0.0000
     22 H          -2.6179    4.9092    5.4676 H       1  UNL1        0.0000
     23 H          -1.1316    5.3934    4.6557 H       1  UNL1        0.0000
     24 C          -1.4762    3.4566    7.5075 C.3     1  UNL1        0.0000
     25 H          -0.9665    2.5893    7.9209 H       1  UNL1        0.0000
     26 H          -2.5283    3.2150    7.3895 H       1  UNL1        0.0000
     27 H          -1.3900    4.2763    8.2172 H       1  UNL1        0.0000
     28 C           4.3754   -0.4790    4.5155 C.3     2  UNL2        0.0000
     29 H           4.1943   -1.2187    3.7369 H       2  UNL2        0.0000
     30 H           4.0270   -0.8678    5.4688 H       2  UNL2        0.0000
     31 H           5.4433   -0.2862    4.5887 H       2  UNL2        0.0000
     32 C           3.9598    1.2193    2.3462 C.3     2  UNL2        0.0000
     33 H           5.0209    1.4452    2.2676 H       2  UNL2        0.0000
     34 H           3.3944    2.0159    1.8685 H       2  UNL2        0.0000
     35 H           3.7550    0.2806    1.8334 H       2  UNL2        0.0000
     36 C           1.7932    0.4204    3.9315 C.3     2  UNL2        0.0000
     37 H           1.1374    1.1925    3.5361 H       2  UNL2        0.0000
     38 H           1.4153    0.0958    4.8987 H       2  UNL2        0.0000
     39 H           1.7984   -0.4304    3.2520 H       2  UNL2        0.0000
     40 C           4.7645    4.8833    2.7500 C.3     3  UNL3        0.0000
     41 H           4.8822    3.9978    2.1310 H       3  UNL3        0.0000
     42 H           5.7389    5.1847    3.1275 H       3  UNL3        0.0000
     43 H           4.3522    5.6905    2.1455 H       3  UNL3        0.0000
     44 C           2.0288    4.5671    3.2746 C.3     3  UNL3        0.0000
     45 H           1.2218    4.5107    4.0008 H       3  UNL3        0.0000
     46 H           1.9572    3.7149    2.6026 H       3  UNL3        0.0000
     47 H           1.9362    5.4885    2.7014 H       3  UNL3        0.0000
     48 C           3.5971    6.1994    4.9240 C.3     3  UNL3        0.0000
     49 H           3.5542    6.9639    4.1495 H       3  UNL3        0.0000
     50 H           4.4853    6.3519    5.5324 H       3  UNL3        0.0000
     51 H           2.7202    6.2873    5.5602 H       3  UNL3        0.0000
     52 C           6.9794    4.6223    6.1013 C.3     4  UNL4        0.0000
     53 H           8.0605    4.5251    6.1883 H       4  UNL4        0.0000
     54 H           6.5719    4.9601    7.0522 H       4  UNL4        0.0000
     55 H           6.7453    5.3613    5.3385 H       4  UNL4        0.0000
     56 C           7.0982    1.9333    6.8741 C.3     4  UNL4        0.0000
     57 H           6.8976    0.8878    6.6507 H       4  UNL4        0.0000
     58 H           6.7572    2.1501    7.8835 H       4  UNL4        0.0000
     59 H           8.1712    2.1103    6.8145 H       4  UNL4        0.0000
     60 C           7.2251    2.5734    4.1743 C.3     4  UNL4        0.0000
     61 H           8.2841    2.7128    4.3870 H       4  UNL4        0.0000
     62 H           6.9435    3.1924    3.3280 H       4  UNL4        0.0000
     63 H           7.0458    1.5310    3.9198 H       4  UNL4        0.0000
     64 H           0.7036    5.1515    6.6025 H       1  UNL1        0.0000
@<TRIPOS>BOND
     1    35    32    1
     2    34    32    1
     3    41    40    1
     4    43    40    1
     5    33    32    1
     6    32     2    1
     7    46    44    1
     8    47    44    1
     9    40    42    1
    10    40     3    1
    11    39    36    1
    12    44    45    1
    13    44     3    1
    14    62    60    1
    15    37    36    1
    16    29    28    1
    17    63    60    1
    18    36     2    1
    19    36    38    1
    20     2    28    1
    21    49    48    1
    22     3    48    1
    23    60    61    1
    24    60     4    1
    25    17    16    1
    26    28    31    1
    27    28    30    1
    28    23    20    1
    29    48    50    1
    30    48    51    1
    31    18    16    1
    32    16    19    1
    33    16    15    1
    34    55    52    1
    35    22    20    1
    36     1     9    1
    37    20    15    1
    38    20    21    1
    39     4    52    1
    40     4    56    1
    41    52    53    1
    42    52    54    1
    43    15     5    1
    44    15    24    1
    45     5    64    1
    46     5    13    2
    47    14    13    1
    48    13    11    1
    49    57    56    1
    50    59    56    1
    51    56    58    1
    52     7     6    1
    53     6     8    1
    54     6     9    1
    55    11     9    1
    56    11    12    1
    57    26    24    1
    58    24    25    1
    59    24    27    1
    60     9    10    1
