@<TRIPOS>MOLECULE
CSD_code = XETCIL | q = 0 | S = 0 | Stoichiometry = C36H33CoF3OP3 | MND = 5
 77 83 0 0 0
SMALL
GASTEIGER

@<TRIPOS>ATOM
      1 CO          2.2455   10.0744    3.4354 Co.oh   1  UNL1        0.0000
      2 P           3.9535   10.5594    4.7097 P.3     1  UNL1        0.0000
      3 P           3.1048    7.9202    3.3511 P.3     1  UNL1        0.0000
      4 P           3.4324   11.0804    1.8067 P.3     1  UNL1        0.0000
      5 F          -0.2984    9.1139    2.6818 F       1  UNL1        0.0000
      6 F           0.2751   10.9364    1.7010 F       1  UNL1        0.0000
      7 F           1.1634    9.0684    1.1214 F       1  UNL1        0.0000
      8 O           0.4355   10.9036    5.5432 O.3     1  UNL1        0.0000
      9 C           4.9903    9.0610    5.0617 C.3     1  UNL1        0.0000
     10 H           5.8050    9.0754    4.3316 H       1  UNL1        0.0000
     11 H           5.4305    9.1254    6.0615 H       1  UNL1        0.0000
     12 C           4.1486    7.8026    4.8862 C.3     1  UNL1        0.0000
     13 H           3.4264    7.7171    5.7059 H       1  UNL1        0.0000
     14 H           4.7560    6.8924    4.8730 H       1  UNL1        0.0000
     15 C           5.1848   11.6152    3.8236 C.3     1  UNL1        0.0000
     16 H           4.8467   12.6541    3.8726 H       1  UNL1        0.0000
     17 H           6.1664   11.5413    4.3045 H       1  UNL1        0.0000
     18 C           5.2002   11.1575    2.3717 C.3     1  UNL1        0.0000
     19 H           5.6190   10.1493    2.2944 H       1  UNL1        0.0000
     20 H           5.7821   11.8320    1.7369 H       1  UNL1        0.0000
     21 C           3.7588   11.3656    6.3240 C.ar    1  UNL1        0.0000
     22 C           3.6087   10.6039    7.4796 C.ar    1  UNL1        0.0000
     23 H           3.6948    9.5271    7.4339 H       1  UNL1        0.0000
     24 C           3.3344   11.2154    8.6888 C.ar    1  UNL1        0.0000
     25 H           3.2249   10.6159    9.5808 H       1  UNL1        0.0000
     26 C           3.1876   12.5907    8.7552 C.ar    1  UNL1        0.0000
     27 H           2.9713   13.0668    9.6998 H       1  UNL1        0.0000
     28 C           3.2967   13.3516    7.6028 C.ar    1  UNL1        0.0000
     29 H           3.1590   14.4221    7.6465 H       1  UNL1        0.0000
     30 C           3.5683   12.7434    6.3918 C.ar    1  UNL1        0.0000
     31 H           3.6200   13.3418    5.4928 H       1  UNL1        0.0000
     32 C           4.1825    7.2791    2.0270 C.ar    1  UNL1        0.0000
     33 C           5.5628    7.1373    2.1172 C.ar    1  UNL1        0.0000
     34 H           6.0835    7.3505    3.0399 H       1  UNL1        0.0000
     35 C           6.2917    6.6994    1.0241 C.ar    1  UNL1        0.0000
     36 H           7.3641    6.5877    1.1073 H       1  UNL1        0.0000
     37 C           5.6545    6.4018   -0.1678 C.ar    1  UNL1        0.0000
     38 H           6.2288    6.0577   -1.0156 H       1  UNL1        0.0000
     39 C           4.2796    6.5482   -0.2683 C.ar    1  UNL1        0.0000
     40 H           3.7768    6.3219   -1.1968 H       1  UNL1        0.0000
     41 C           3.5504    6.9908    0.8171 C.ar    1  UNL1        0.0000
     42 H           2.4804    7.1155    0.7404 H       1  UNL1        0.0000
     43 C           2.0471    6.4690    3.6669 C.ar    1  UNL1        0.0000
     44 C           2.3804    5.1766    3.2773 C.ar    1  UNL1        0.0000
     45 H           3.2863    4.9937    2.7169 H       1  UNL1        0.0000
     46 C           1.5446    4.1232    3.6016 C.ar    1  UNL1        0.0000
     47 H           1.8042    3.1204    3.2939 H       1  UNL1        0.0000
     48 C           0.3792    4.3489    4.3159 C.ar    1  UNL1        0.0000
     49 H          -0.2714    3.5222    4.5609 H       1  UNL1        0.0000
     50 C           0.0468    5.6346    4.7102 C.ar    1  UNL1        0.0000
     51 H          -0.8636    5.8149    5.2622 H       1  UNL1        0.0000
     52 C           0.8775    6.6908    4.3863 C.ar    1  UNL1        0.0000
     53 H           0.6189    7.7019    4.6739 H       1  UNL1        0.0000
     54 C           3.5819   10.6247    0.0553 C.ar    1  UNL1        0.0000
     55 C           2.5326   10.9914   -0.7860 C.ar    1  UNL1        0.0000
     56 H           1.7066   11.5613   -0.3828 H       1  UNL1        0.0000
     57 C           2.5474   10.6256   -2.1172 C.ar    1  UNL1        0.0000
     58 H           1.7311   10.9129   -2.7635 H       1  UNL1        0.0000
     59 C           3.6061    9.8867   -2.6220 C.ar    1  UNL1        0.0000
     60 H           3.6186    9.6005   -3.6636 H       1  UNL1        0.0000
     61 C           4.6442    9.5101   -1.7880 C.ar    1  UNL1        0.0000
     62 H           5.4684    8.9288   -2.1761 H       1  UNL1        0.0000
     63 C           4.6315    9.8681   -0.4515 C.ar    1  UNL1        0.0000
     64 H           5.4427    9.5516    0.1876 H       1  UNL1        0.0000
     65 C           3.1262   12.8748    1.6608 C.ar    1  UNL1        0.0000
     66 C           2.2709   13.4895    2.5658 C.ar    1  UNL1        0.0000
     67 H           1.7555   12.8795    3.2991 H       1  UNL1        0.0000
     68 C           2.0706   14.8579    2.5177 C.ar    1  UNL1        0.0000
     69 H           1.4019   15.3300    3.2227 H       1  UNL1        0.0000
     70 C           2.7226   15.6178    1.5616 C.ar    1  UNL1        0.0000
     71 H           2.5655   16.6857    1.5191 H       1  UNL1        0.0000
     72 C           3.5729   15.0079    0.6517 C.ar    1  UNL1        0.0000
     73 H           4.0765   15.6012   -0.0980 H       1  UNL1        0.0000
     74 C           3.7776   13.6419    0.6991 C.ar    1  UNL1        0.0000
     75 H           4.4340   13.1652   -0.0169 H       1  UNL1        0.0000
     76 C           1.1069   10.5597    4.6754 C.3     1  UNL1        0.0000
     77 C           0.7974    9.7876    2.2292 C.3     1  UNL1        0.0000
@<TRIPOS>BOND
     1    60    59    1
     2    58    57    1
     3    59    57   ar
     4    59    61   ar
     5    62    61    1
     6    57    55   ar
     7    61    63   ar
     8    40    39    1
     9    38    37    1
    10    55    56    1
    11    55    54   ar
    12    63    54   ar
    13    63    64    1
    14    39    37   ar
    15    39    41   ar
    16    37    35   ar
    17    73    72    1
    18    75    74    1
    19    54     4    1
    20    72    74   ar
    21    72    70   ar
    22    74    65   ar
    23    42    41    1
    24    41    32   ar
    25    35    36    1
    26    35    33   ar
    27     7    77    1
    28    71    70    1
    29    70    68   ar
    30    65     4    1
    31    65    66   ar
    32     6    77    1
    33    20    18    1
    34     4    18    1
    35     4     1    1
    36    32    33   ar
    37    32     3    1
    38    33    34    1
    39    77     5    1
    40    77     1    1
    41    19    18    1
    42    18    15    1
    43    68    66   ar
    44    68    69    1
    45    66    67    1
    46    45    44    1
    47    44    46   ar
    48    44    43   ar
    49    47    46    1
    50     3     1    1
    51     3    43    1
    52     3    12    1
    53     1    76    1
    54     1     2    1
    55    46    48   ar
    56    43    52   ar
    57    15    16    1
    58    15    17    1
    59    15     2    1
    60    48    49    1
    61    48    50   ar
    62    10     9    1
    63    52    53    1
    64    52    50   ar
    65    76     8    1
    66     2     9    1
    67     2    21    1
    68    50    51    1
    69    14    12    1
    70    12     9    1
    71    12    13    1
    72     9    11    1
    73    31    30    1
    74    21    30   ar
    75    21    22   ar
    76    30    28   ar
    77    23    22    1
    78    22    24   ar
    79    28    29    1
    80    28    26   ar
    81    24    26   ar
    82    24    25    1
    83    26    27    1
