@<TRIPOS>MOLECULE
CSD_code = XIHCID | q = 1 | S = 0 | Stoichiometry = C26H16CoN6O2S2(1+) | MND = 6
 53 62 0 0 0
SMALL
GASTEIGER

@<TRIPOS>ATOM
      1 CO         11.5926    9.5348    8.4112 Co.oh   1  UNL1        0.0000
      2 S          11.7146    5.4799    9.7583 S.3     1  UNL1        0.0000
      3 S          13.1524   11.7719   11.7027 S.3     1  UNL1        0.0000
      4 N          12.7085    8.4013    7.5167 N.pl3   1  UNL1        0.0000
      5 N          12.7620    7.1670    7.9069 N.2     1  UNL1        0.0000
      6 N          11.2175    7.9788    9.4541 N.pl3   1  UNL1        0.0000
      7 N          10.4516   10.6977    9.2330 N.pl3   1  UNL1        0.0000
      8 N          10.9023   11.3876   10.2328 N.2     1  UNL1        0.0000
      9 N          12.8240   10.1671    9.7277 N.pl3   1  UNL1        0.0000
     10 O          12.2063   10.8215    7.1931 O.3     1  UNL1        0.0000
     11 O          10.1319    9.1605    7.2967 O.3     1  UNL1        0.0000
     12 C          14.7567    9.0675    4.4909 C.ar    1  UNL1        0.0000
     13 C          15.6205    8.4761    3.5580 C.ar    1  UNL1        0.0000
     14 H          16.0225    9.0827    2.7604 H       1  UNL1        0.0000
     15 C          15.9516    7.1429    3.6527 C.ar    1  UNL1        0.0000
     16 H          16.6158    6.6973    2.9287 H       1  UNL1        0.0000
     17 C          15.4278    6.3668    4.6837 C.ar    1  UNL1        0.0000
     18 H          15.6894    5.3222    4.7528 H       1  UNL1        0.0000
     19 C          14.5757    6.9199    5.6176 C.ar    1  UNL1        0.0000
     20 H          14.1692    6.3159    6.4125 H       1  UNL1        0.0000
     21 C          14.2257    8.2714    5.5383 C.ar    1  UNL1        0.0000
     22 C          13.3408    8.9179    6.4657 C.ar    1  UNL1        0.0000
     23 C          13.0038   10.3115    6.3365 C.ar    1  UNL1        0.0000
     24 C          13.5705   11.0592    5.2718 C.ar    1  UNL1        0.0000
     25 H          13.3118   12.1023    5.1839 H       1  UNL1        0.0000
     26 C          14.4088   10.4460    4.3939 C.ar    1  UNL1        0.0000
     27 H          14.8359   11.0141    3.5799 H       1  UNL1        0.0000
     28 C          11.9464    6.9778    8.9508 C.2     1  UNL1        0.0000
     29 C          10.5855    6.2571   10.8064 C.2     1  UNL1        0.0000
     30 H          10.0895    5.7084   11.5801 H       1  UNL1        0.0000
     31 C          10.4509    7.5695   10.4945 C.2     1  UNL1        0.0000
     32 H           9.8072    8.2707   10.9957 H       1  UNL1        0.0000
     33 C           6.9701   11.5879    8.2942 C.ar    1  UNL1        0.0000
     34 C           5.8893   12.4197    8.6198 C.ar    1  UNL1        0.0000
     35 H           4.9846   12.3540    8.0342 H       1  UNL1        0.0000
     36 C           5.9770   13.3092    9.6671 C.ar    1  UNL1        0.0000
     37 H           5.1402   13.9462    9.9080 H       1  UNL1        0.0000
     38 C           7.1481   13.3893   10.4165 C.ar    1  UNL1        0.0000
     39 H           7.2127   14.0896   11.2351 H       1  UNL1        0.0000
     40 C           8.2285   12.5828   10.1222 C.ar    1  UNL1        0.0000
     41 H           9.1345   12.6492   10.7022 H       1  UNL1        0.0000
     42 C           8.1602   11.6737    9.0617 C.ar    1  UNL1        0.0000
     43 C           9.2423   10.8076    8.6882 C.ar    1  UNL1        0.0000
     44 C           9.1281    9.8971    7.5789 C.ar    1  UNL1        0.0000
     45 C           7.9107    9.8511    6.8510 C.ar    1  UNL1        0.0000
     46 H           7.8349    9.1654    6.0223 H       1  UNL1        0.0000
     47 C           6.8853   10.6703    7.2071 C.ar    1  UNL1        0.0000
     48 H           5.9602   10.6390    6.6494 H       1  UNL1        0.0000
     49 C          12.1815   11.0743   10.4698 C.2     1  UNL1        0.0000
     50 C          14.4702   10.7913   11.1743 C.2     1  UNL1        0.0000
     51 H          15.4226   10.8462   11.6597 H       1  UNL1        0.0000
     52 C          14.1112   10.0133   10.1237 C.2     1  UNL1        0.0000
     53 H          14.7512    9.3169    9.6112 H       1  UNL1        0.0000
@<TRIPOS>BOND
     1    14    13    1
     2    16    15    1
     3    13    15   ar
     4    13    12   ar
     5    27    26    1
     6    15    17   ar
     7    26    12   ar
     8    26    24   ar
     9    12    21   ar
    10    17    18    1
    11    17    19   ar
    12    25    24    1
    13    24    23   ar
    14    21    19   ar
    15    21    22   ar
    16    19    20    1
    17    46    45    1
    18    23    22   ar
    19    23    10    1
    20    22     4    1
    21    48    47    1
    22    45    47   ar
    23    45    44   ar
    24    10     1    1
    25    47    33   ar
    26    11    44    1
    27    11     1    1
    28     4     5    1
    29     4     1    1
    30    44    43   ar
    31     5    28    2
    32    35    34    1
    33    33    34   ar
    34    33    42   ar
    35     1     7    1
    36     1     6    1
    37     1     9    1
    38    34    36   ar
    39    43    42   ar
    40    43     7    1
    41    28     6    1
    42    28     2    1
    43    42    40   ar
    44     7     8    1
    45     6    31    1
    46    53    52    1
    47    36    37    1
    48    36    38   ar
    49     9    52    1
    50     9    49    1
    51     2    29    1
    52    40    38   ar
    53    40    41    1
    54    52    50    2
    55     8    49    2
    56    38    39    1
    57    49     3    1
    58    31    29    2
    59    31    32    1
    60    29    30    1
    61    50    51    1
    62    50     3    1
