@<TRIPOS>MOLECULE
CSD_code = XONBOS | q = 0 | S = 0 | Stoichiometry = C39H53BCoPS3 | MND = 4
 98 103 0 0 0
SMALL
GASTEIGER

@<TRIPOS>ATOM
      1 CO          6.2461    3.7139    1.9832 Co.oh   1  UNL1        0.0000
      2 P           6.2130    2.2801    3.6543 P.3     1  UNL1        0.0000
      3 S           4.6785    5.4427    2.3873 S.3     1  UNL1        0.0000
      4 S           8.3952    4.9800    2.3081 S.3     1  UNL1        0.0000
      5 S           6.2847    4.1042   -0.1587 S.3     1  UNL1        0.0000
      6 B           6.7250    6.8390    0.6512 B       1  UNL1        0.0000
      7 C           7.2895    9.3699    0.9939 C.ar    1  UNL1        0.0000
      8 H           7.5328    9.1081    2.0154 H       1  UNL1        0.0000
      9 C           7.4090   10.6922    0.6088 C.ar    1  UNL1        0.0000
     10 H           7.7433   11.4354    1.3212 H       1  UNL1        0.0000
     11 C           7.1013   11.0676   -0.6874 C.ar    1  UNL1        0.0000
     12 H           7.1943   12.0994   -0.9972 H       1  UNL1        0.0000
     13 C           6.6701   10.1025   -1.5788 C.ar    1  UNL1        0.0000
     14 H           6.4208   10.3796   -2.5951 H       1  UNL1        0.0000
     15 C           6.5551    8.7825   -1.1764 C.ar    1  UNL1        0.0000
     16 H           6.2090    8.0599   -1.9022 H       1  UNL1        0.0000
     17 C           6.8660    8.3695    0.1170 C.ar    1  UNL1        0.0000
     18 C           5.6091    6.9256    1.8650 C.3     1  UNL1        0.0000
     19 H           4.8295    7.6373    1.5864 H       1  UNL1        0.0000
     20 H           6.1009    7.2908    2.7610 H       1  UNL1        0.0000
     21 C           8.2275    6.3822    1.1456 C.3     1  UNL1        0.0000
     22 H           8.7470    7.2024    1.6415 H       1  UNL1        0.0000
     23 H           8.8056    6.1106    0.2637 H       1  UNL1        0.0000
     24 C           6.2145    5.8587   -0.5693 C.3     1  UNL1        0.0000
     25 H           6.8446    5.9685   -1.4534 H       1  UNL1        0.0000
     26 H           5.1869    6.0864   -0.8420 H       1  UNL1        0.0000
     27 C           4.3726    5.7848    4.1969 C.3     1  UNL1        0.0000
     28 C           3.5556    7.0671    4.3001 C.3     1  UNL1        0.0000
     29 H           3.3155    7.2651    5.3438 H       1  UNL1        0.0000
     30 H           2.6261    6.9723    3.7424 H       1  UNL1        0.0000
     31 H           4.1057    7.9200    3.9103 H       1  UNL1        0.0000
     32 C           3.5565    4.6075    4.7141 C.3     1  UNL1        0.0000
     33 H           4.1373    3.6898    4.6446 H       1  UNL1        0.0000
     34 H           2.6433    4.4893    4.1348 H       1  UNL1        0.0000
     35 H           3.2886    4.7662    5.7572 H       1  UNL1        0.0000
     36 C           5.6914    5.8940    4.9497 C.3     1  UNL1        0.0000
     37 H           6.1492    6.8712    4.8175 H       1  UNL1        0.0000
     38 H           6.3911    5.1382    4.5949 H       1  UNL1        0.0000
     39 H           5.5281    5.7409    6.0154 H       1  UNL1        0.0000
     40 C          10.0500    4.2479    1.8555 C.3     1  UNL1        0.0000
     41 C          11.0953    5.3549    1.8041 C.3     1  UNL1        0.0000
     42 H          11.0943    5.9205    2.7336 H       1  UNL1        0.0000
     43 H          10.9134    6.0417    0.9816 H       1  UNL1        0.0000
     44 H          12.0835    4.9175    1.6672 H       1  UNL1        0.0000
     45 C           9.9375    3.5214    0.5242 C.3     1  UNL1        0.0000
     46 H           9.6377    4.2012   -0.2708 H       1  UNL1        0.0000
     47 H           9.1980    2.7270    0.5932 H       1  UNL1        0.0000
     48 H          10.8975    3.0828    0.2538 H       1  UNL1        0.0000
     49 C          10.3943    3.2691    2.9722 C.3     1  UNL1        0.0000
     50 H          11.3297    2.7590    2.7477 H       1  UNL1        0.0000
     51 H           9.6140    2.5201    3.0794 H       1  UNL1        0.0000
     52 H          10.5074    3.7968    3.9168 H       1  UNL1        0.0000
     53 C           4.8048    3.3390   -0.9991 C.3     1  UNL1        0.0000
     54 C           3.4970    3.9413   -0.5132 C.3     1  UNL1        0.0000
     55 H           2.6609    3.4413   -1.0003 H       1  UNL1        0.0000
     56 H           3.4336    5.0025   -0.7421 H       1  UNL1        0.0000
     57 H           3.3980    3.8224    0.5627 H       1  UNL1        0.0000
     58 C           4.9825    3.5412   -2.4986 C.3     1  UNL1        0.0000
     59 H           4.1876    3.0308   -3.0404 H       1  UNL1        0.0000
     60 H           5.9383    3.1383   -2.8285 H       1  UNL1        0.0000
     61 H           4.9458    4.5971   -2.7569 H       1  UNL1        0.0000
     62 C           4.8701    1.8579   -0.6418 C.3     1  UNL1        0.0000
     63 H           4.8405    1.7301    0.4412 H       1  UNL1        0.0000
     64 H           5.7865    1.4115   -1.0234 H       1  UNL1        0.0000
     65 H           4.0233    1.3260   -1.0716 H       1  UNL1        0.0000
     66 C           7.7127    0.8477    1.8827 C.ar    1  UNL1        0.0000
     67 H           7.1486    1.4522    1.1776 H       1  UNL1        0.0000
     68 C           8.6367   -0.0792    1.4415 C.ar    1  UNL1        0.0000
     69 H           8.7997   -0.2239    0.3833 H       1  UNL1        0.0000
     70 C           9.3617   -0.8173    2.3638 C.ar    1  UNL1        0.0000
     71 H          10.0894   -1.5401    2.0256 H       1  UNL1        0.0000
     72 C           9.1585   -0.6227    3.7198 C.ar    1  UNL1        0.0000
     73 H           9.7285   -1.1943    4.4379 H       1  UNL1        0.0000
     74 C           8.2288    0.3023    4.1639 C.ar    1  UNL1        0.0000
     75 H           8.0848    0.4556    5.2244 H       1  UNL1        0.0000
     76 C           7.4984    1.0442    3.2437 C.ar    1  UNL1        0.0000
     77 C           7.6602    3.1157    5.8308 C.ar    1  UNL1        0.0000
     78 H           8.3502    3.4403    5.0639 H       1  UNL1        0.0000
     79 C           7.9327    3.3418    7.1656 C.ar    1  UNL1        0.0000
     80 H           8.8492    3.8354    7.4541 H       1  UNL1        0.0000
     81 C           7.0247    2.9414    8.1341 C.ar    1  UNL1        0.0000
     82 H           7.2340    3.1191    9.1788 H       1  UNL1        0.0000
     83 C           5.8445    2.3218    7.7599 C.ar    1  UNL1        0.0000
     84 H           5.1314    2.0178    8.5127 H       1  UNL1        0.0000
     85 C           5.5695    2.0897    6.4230 C.ar    1  UNL1        0.0000
     86 H           4.6434    1.6087    6.1405 H       1  UNL1        0.0000
     87 C           6.4846    2.4717    5.4497 C.ar    1  UNL1        0.0000
     88 C           4.8096   -0.1323    4.1288 C.ar    1  UNL1        0.0000
     89 H           5.6961   -0.4737    4.6447 H       1  UNL1        0.0000
     90 C           3.7138   -0.9665    4.0089 C.ar    1  UNL1        0.0000
     91 H           3.7456   -1.9583    4.4363 H       1  UNL1        0.0000
     92 C           2.5785   -0.5374    3.3389 C.ar    1  UNL1        0.0000
     93 H           1.7272   -1.1954    3.2450 H       1  UNL1        0.0000
     94 C           2.5396    0.7322    2.7882 C.ar    1  UNL1        0.0000
     95 H           1.6581    1.0691    2.2627 H       1  UNL1        0.0000
     96 C           3.6341    1.5693    2.9099 C.ar    1  UNL1        0.0000
     97 H           3.6168    2.5654    2.4868 H       1  UNL1        0.0000
     98 C           4.7741    1.1472    3.5830 C.ar    1  UNL1        0.0000
@<TRIPOS>BOND
     1    59    58    1
     2    60    58    1
     3    61    58    1
     4    14    13    1
     5    58    53    1
     6    16    15    1
     7    13    15   ar
     8    13    11   ar
     9    25    24    1
    10    15    17   ar
    11    65    62    1
    12    64    62    1
    13    55    54    1
    14    53    62    1
    15    53    54    1
    16    53     5    1
    17    12    11    1
    18    26    24    1
    19    56    54    1
    20    11     9   ar
    21    62    63    1
    22    24     5    1
    23    24     6    1
    24    54    57    1
    25    46    45    1
    26     5     1    1
    27    17     6    1
    28    17     7   ar
    29    48    45    1
    30    23    21    1
    31    69    68    1
    32    45    47    1
    33    45    40    1
    34     9     7   ar
    35     9    10    1
    36     6    21    1
    37     6    18    1
    38    43    41    1
    39     7     8    1
    40    21    22    1
    41    21     4    1
    42    67    66    1
    43    68    66   ar
    44    68    70   ar
    45    19    18    1
    46    44    41    1
    47    41    40    1
    48    41    42    1
    49    40     4    1
    50    40    49    1
    51    18     3    1
    52    18    20    1
    53    66    76   ar
    54     1     4    1
    55     1     3    1
    56     1     2    1
    57    71    70    1
    58    95    94    1
    59    70    72   ar
    60     3    27    1
    61    97    96    1
    62    50    49    1
    63    94    96   ar
    64    94    92   ar
    65    96    98   ar
    66    49    51    1
    67    49    52    1
    68    76     2    1
    69    76    74   ar
    70    93    92    1
    71    92    90   ar
    72    98     2    1
    73    98    88   ar
    74     2    87    1
    75    72    74   ar
    76    72    73    1
    77    30    28    1
    78    31    28    1
    79    90    88   ar
    80    90    91    1
    81    88    89    1
    82    34    32    1
    83    74    75    1
    84    27    28    1
    85    27    32    1
    86    27    36    1
    87    28    29    1
    88    38    36    1
    89    33    32    1
    90    32    35    1
    91    37    36    1
    92    36    39    1
    93    78    77    1
    94    87    77   ar
    95    87    85   ar
    96    77    79   ar
    97    86    85    1
    98    85    83   ar
    99    79    80    1
   100    79    81   ar
   101    83    81   ar
   102    83    84    1
   103    81    82    1
