@<TRIPOS>MOLECULE
CSD_code = XULQUR | q = 1 | S = 0 | Stoichiometry = C22H18CoN8Se2(1+) | MND = 6
 51 58 0 0 0
SMALL
GASTEIGER

@<TRIPOS>ATOM
      1 CO          4.5263    4.2015    3.9204 Co.oh   1  UNL1        0.0000
      2 SE          6.6681    3.2112    3.2313 Se      1  UNL1        0.0000
      3 SE          5.0056    3.7905    6.2963 Se      1  UNL1        0.0000
      4 N           2.6151    4.6214    4.4790 N.pl3   1  UNL1        0.0000
      5 N           3.8661    2.4498    3.8131 N.pl3   1  UNL1        0.0000
      6 N           4.5418    1.3889    3.4231 N.2     1  UNL1        0.0000
      7 N           6.4841    0.4898    2.6442 N.pl3   1  UNL1        0.0000
      8 N           4.3436    4.9008    2.0184 N.pl3   1  UNL1        0.0000
      9 N           5.4320    5.8212    4.1833 N.pl3   1  UNL1        0.0000
     10 N           5.9213    6.2593    5.3246 N.2     1  UNL1        0.0000
     11 N           6.2327    5.9543    7.5603 N.pl3   1  UNL1        0.0000
     12 C           1.9797    5.7841    4.7839 C.3     1  UNL1        0.0000
     13 C           2.5563    7.0348    4.4912 C.2     1  UNL1        0.0000
     14 H           3.4991    7.0700    3.9758 H       1  UNL1        0.0000
     15 C           1.9291    8.2035    4.8318 C.2     1  UNL1        0.0000
     16 H           2.3952    9.1473    4.5944 H       1  UNL1        0.0000
     17 C           0.6872    8.1908    5.4796 C.2     1  UNL1        0.0000
     18 H           0.2139    9.1212    5.7500 H       1  UNL1        0.0000
     19 C           0.0791    6.9956    5.7488 C.2     1  UNL1        0.0000
     20 H          -0.8883    6.9623    6.2266 H       1  UNL1        0.0000
     21 C           0.6930    5.7777    5.4028 C.2     1  UNL1        0.0000
     22 C           0.0601    4.5386    5.6415 C.2     1  UNL1        0.0000
     23 H          -0.9110    4.5222    6.1123 H       1  UNL1        0.0000
     24 C           0.6832    3.3904    5.2608 C.2     1  UNL1        0.0000
     25 H           0.2345    2.4209    5.4025 H       1  UNL1        0.0000
     26 C           1.9718    3.4625    4.6873 C.2     1  UNL1        0.0000
     27 C           2.6721    2.2827    4.3072 C.3     1  UNL1        0.0000
     28 H           2.2477    1.2932    4.4109 H       1  UNL1        0.0000
     29 C           5.7925    1.5384    3.0842 C.2     1  UNL1        0.0000
     30 C           3.7196    4.4131    0.9132 C.2     1  UNL1        0.0000
     31 C           2.8005    3.3499    0.9977 C.2     1  UNL1        0.0000
     32 H           2.5596    2.9400    1.9619 H       1  UNL1        0.0000
     33 C           2.1933    2.8450   -0.1211 C.2     1  UNL1        0.0000
     34 H           1.4918    2.0306   -0.0250 H       1  UNL1        0.0000
     35 C           2.4661    3.3747   -1.3887 C.2     1  UNL1        0.0000
     36 H           1.9844    2.9584   -2.2591 H       1  UNL1        0.0000
     37 C           3.3312    4.4276   -1.5078 C.3     1  UNL1        0.0000
     38 H           3.5401    4.8658   -2.4719 H       1  UNL1        0.0000
     39 C           3.9636    4.9753   -0.3765 C.2     1  UNL1        0.0000
     40 C           4.8298    6.0851   -0.4809 C.2     1  UNL1        0.0000
     41 H           5.0300    6.5107   -1.4522 H       1  UNL1        0.0000
     42 C           5.3838    6.6039    0.6485 C.2     1  UNL1        0.0000
     43 H           6.0340    7.4629    0.6254 H       1  UNL1        0.0000
     44 C           5.1253    5.9840    1.8908 C.2     1  UNL1        0.0000
     45 C           5.7050    6.4798    3.0927 C.3     1  UNL1        0.0000
     46 H           6.3335    7.3597    3.1182 H       1  UNL1        0.0000
     47 C           5.7890    5.5124    6.3856 C.2     1  UNL1        0.0000
     48 H           6.7037    6.8431    7.6149 H       1  UNL1        0.0000
     49 H           6.2063    5.3568    8.3699 H       1  UNL1        0.0000
     50 H           7.4677    0.5764    2.4485 H       1  UNL1        0.0000
     51 H           6.0484   -0.4179    2.6099 H       1  UNL1        0.0000
@<TRIPOS>BOND
     1    38    37    1
     2    36    35    1
     3    37    35    1
     4    37    39    1
     5    41    40    1
     6    35    33    2
     7    40    39    2
     8    40    42    1
     9    39    30    1
    10    33    34    1
    11    33    31    1
    12    43    42    1
    13    42    44    2
    14    30    31    2
    15    30     8    1
    16    31    32    1
    17    44     8    1
    18    44    45    1
    19     8     1    1
    20    50     7    1
    21    51     7    1
    22     7    29    1
    23    29     2    1
    24    29     6    2
    25    45    46    1
    26    45     9    1
    27     2     1    1
    28     6     5    1
    29     5     1    1
    30     5    27    1
    31     1     9    1
    32     1     4    1
    33     1     3    1
    34    14    13    1
    35     9    10    1
    36    27    28    1
    37    27    26    1
    38     4    26    1
    39     4    12    1
    40    13    12    1
    41    13    15    2
    42    16    15    1
    43    26    24    2
    44    12    21    1
    45    15    17    1
    46    24    25    1
    47    24    22    1
    48    10    47    2
    49    21    22    2
    50    21    19    1
    51    17    19    2
    52    17    18    1
    53    22    23    1
    54    19    20    1
    55     3    47    1
    56    47    11    1
    57    11    48    1
    58    11    49    1
