@<TRIPOS>MOLECULE
CSD_code = XUSNIJ | q = 1 | S = 0 | Stoichiometry = C44H46CoN8(1+) | MND = 6
 99 108 0 0 0
SMALL
GASTEIGER

@<TRIPOS>ATOM
      1 CO          1.6043    9.5955   16.0036 Co.oh   1  UNL1        0.0000
      2 N           2.2279    8.3005   14.7138 N.pl3   1  UNL1        0.5000
      3 N           0.2577   10.2679   14.7925 N.pl3   1  UNL1        0.5000
      4 N           3.1878    9.2706   17.0252 N.pl3   1  UNL1        0.0000
      5 C           5.3818   10.2894   17.4248 C.ar    1  UNL1        0.0000
      6 H           5.6961    9.5072   18.0984 H       1  UNL1        0.0000
      7 C           4.1011   10.2108   16.8219 C.ar    1  UNL1        0.0000
      8 C           3.1141    6.4367   19.3840 C.ar    1  UNL1        0.0000
      9 H           2.5882    6.1386   20.2787 H       1  UNL1        0.0000
     10 C           3.5075    8.0626   17.6590 C.ar    1  UNL1        0.0000
     11 C           4.4648    7.2140   17.1007 C.ar    1  UNL1        0.0000
     12 H           4.9819    7.5206   16.2018 H       1  UNL1        0.0000
     13 C           2.8378    7.6623   18.8143 C.ar    1  UNL1        0.0000
     14 H           2.1115    8.3213   19.2664 H       1  UNL1        0.0000
     15 C           3.4396    7.3077   12.9239 C.2     1  UNL1        0.0000
     16 H           4.1392    7.4345   12.1148 H       1  UNL1        0.0000
     17 N           0.8009   10.5068   17.4651 N.pl3   1  UNL1        0.0000
     18 C          -0.1050    8.3719   17.6805 C.ar    1  UNL1        0.0000
     19 C           3.0827    8.3934   13.6991 C.3     1  UNL1        0.0000
     20 H           3.4994    9.3721   13.5002 H       1  UNL1        0.0000
     21 C           2.8849    6.0615   13.2097 C.2     1  UNL1        0.0000
     22 H           3.1519    5.1985   12.6201 H       1  UNL1        0.0000
     23 C           0.0011    9.7203   18.1645 C.ar    1  UNL1        0.0000
     24 C          -0.0732   12.1274   13.2951 C.2     1  UNL1        0.0000
     25 H           0.3370   13.0239   12.8618 H       1  UNL1        0.0000
     26 C          -0.9670    9.8403   14.4954 C.3     1  UNL1        0.0000
     27 H          -1.3010    8.9345   14.9834 H       1  UNL1        0.0000
     28 C          -0.7379   10.0769   19.3213 C.ar    1  UNL1        0.0000
     29 H          -0.6685   11.0854   19.6989 H       1  UNL1        0.0000
     30 N           1.9502   11.8317   14.5429 N.pl3   1  UNL1        0.5000
     31 C           0.7144   11.4088   14.2047 C.2     1  UNL1        0.0000
     32 C          -1.7927   10.5017   13.6080 C.2     1  UNL1        0.0000
     33 H          -2.7749   10.1122   13.3994 H       1  UNL1        0.0000
     34 C          -0.9238    7.4260   18.3344 C.ar    1  UNL1        0.0000
     35 H          -0.9695    6.4235   17.9402 H       1  UNL1        0.0000
     36 C           6.1785   11.3669   17.1668 C.ar    1  UNL1        0.0000
     37 H           7.1470   11.4345   17.6390 H       1  UNL1        0.0000
     38 C          -1.6198    7.8139   19.4412 C.ar    1  UNL1        0.0000
     39 H          -2.2531    7.1126   19.9605 H       1  UNL1        0.0000
     40 C          -1.5218    9.1387   19.9274 C.ar    1  UNL1        0.0000
     41 H          -2.0871    9.4084   20.8067 H       1  UNL1        0.0000
     42 C           4.3678    4.2652   19.4724 C.3     1  UNL1        0.0000
     43 H           3.4548    3.8222   19.8747 H       1  UNL1        0.0000
     44 H           4.7893    3.5765   18.7384 H       1  UNL1        0.0000
     45 C          -1.3347   11.6677   12.9965 C.2     1  UNL1        0.0000
     46 H          -1.9627   12.2009   12.3002 H       1  UNL1        0.0000
     47 C           4.0555    5.5778   18.8249 C.ar    1  UNL1        0.0000
     48 C           0.5246   12.9107   17.2666 C.ar    1  UNL1        0.0000
     49 H          -0.2428   12.7540   16.5222 H       1  UNL1        0.0000
     50 C           2.1018   12.0087   18.8502 C.ar    1  UNL1        0.0000
     51 H           2.5622   11.1516   19.3195 H       1  UNL1        0.0000
     52 C           1.1250   11.8120   17.8759 C.ar    1  UNL1        0.0000
     53 C           4.7312    5.9912   17.6816 C.ar    1  UNL1        0.0000
     54 H           5.4708    5.3428   17.2356 H       1  UNL1        0.0000
     55 C           5.7254    3.1288   21.2834 C.3     1  UNL1        0.0000
     56 H           4.8114    2.6527   21.6464 H       1  UNL1        0.0000
     57 H           6.1751    2.4609   20.5451 H       1  UNL1        0.0000
     58 C           2.4778   13.2918   19.1991 C.ar    1  UNL1        0.0000
     59 H           3.2360   13.4385   19.9530 H       1  UNL1        0.0000
     60 C           5.3741    4.4554   20.6162 C.3     1  UNL1        0.0000
     61 H           4.9503    5.1361   21.3579 H       1  UNL1        0.0000
     62 H           6.2820    4.9188   20.2230 H       1  UNL1        0.0000
     63 C           6.6930    3.3146   22.4499 C.3     1  UNL1        0.0000
     64 H           6.2316    3.9587   23.2025 H       1  UNL1        0.0000
     65 H           7.5964    3.8168   22.0949 H       1  UNL1        0.0000
     66 N           0.8087    7.0266   16.0328 N.pl3   1  UNL1        0.5000
     67 C           1.6762    7.0891   15.0002 C.2     1  UNL1        0.0000
     68 C           1.9939    5.9485   14.2515 C.2     1  UNL1        0.0000
     69 H           1.5308    5.0148   14.5217 H       1  UNL1        0.0000
     70 C           1.8867   14.3835   18.5844 C.ar    1  UNL1        0.0000
     71 H           2.1861   15.3836   18.8559 H       1  UNL1        0.0000
     72 C           7.0746    1.9830   23.0923 C.3     1  UNL1        0.0000
     73 H           7.5780    1.3572   22.3515 H       1  UNL1        0.0000
     74 H           6.1655    1.4658   23.4036 H       1  UNL1        0.0000
     75 C           0.9070   14.1901   17.6244 C.ar    1  UNL1        0.0000
     76 H           0.4370   15.0385   17.1513 H       1  UNL1        0.0000
     77 C           7.9932    2.1775   24.2970 C.3     1  UNL1        0.0000
     78 H           7.4540    2.7190   25.0783 H       1  UNL1        0.0000
     79 H           8.8421    2.7961   23.9938 H       1  UNL1        0.0000
     80 C           4.5569   12.3691   15.6894 C.ar    1  UNL1        0.0000
     81 H           4.2121   13.1469   15.0271 H       1  UNL1        0.0000
     82 C           5.7737   12.4103   16.3029 C.ar    1  UNL1        0.0000
     83 H           6.4399   13.2419   16.1385 H       1  UNL1        0.0000
     84 C           7.9919   -1.2128   26.2475 C.3     1  UNL1        0.0000
     85 H           8.6676   -0.8484   27.0247 H       1  UNL1        0.0000
     86 H           7.1618   -1.7209   26.7446 H       1  UNL1        0.0000
     87 C           7.4353   -0.0232   25.4643 C.3     1  UNL1        0.0000
     88 H           6.7870   -0.3976   24.6700 H       1  UNL1        0.0000
     89 H           6.8226    0.5812   26.1382 H       1  UNL1        0.0000
     90 C           8.5272    0.8630   24.8665 C.3     1  UNL1        0.0000
     91 H           9.0500    0.3217   24.0760 H       1  UNL1        0.0000
     92 H           9.2548    1.0955   25.6481 H       1  UNL1        0.0000
     93 N           0.6775    8.1678   16.6184 N.pl3   1  UNL1        0.0000
     94 N           2.5040   11.0489   15.4054 N.pl3   1  UNL1        0.0000
     95 C           3.7091   11.2677   15.9349 C.ar    1  UNL1        0.0000
     96 C           8.7284   -2.2164   25.3679 C.3     1  UNL1        0.0000
     97 H           9.0276   -3.0820   25.9542 H       1  UNL1        0.0000
     98 H           9.6233   -1.7761   24.9360 H       1  UNL1        0.0000
     99 H           8.0856   -2.5573   24.5588 H       1  UNL1        0.0000
@<TRIPOS>BOND
     1    16    15    1
     2    46    45    1
     3    22    21    1
     4    25    24    1
     5    15    21    2
     6    15    19    1
     7    45    24    1
     8    45    32    2
     9    21    68    1
    10    24    31    2
    11    33    32    1
    12    20    19    1
    13    32    26    1
    14    19     2    1
    15    31    30    1
    16    31     3    1
    17    68    69    1
    18    68    67    2
    19    26     3    1
    20    26    27    1
    21    30    94    1
    22     2    67    1
    23     2     1    1
    24     3     1    1
    25    67    66    1
    26    81    80    1
    27    94    95    1
    28    94     1    1
    29    80    95   ar
    30    80    82   ar
    31    95     7   ar
    32     1    93    1
    33     1     4    1
    34     1    17    1
    35    66    93    1
    36    83    82    1
    37    12    11    1
    38    82    36   ar
    39    49    48    1
    40    93    18    1
    41     7     4    1
    42     7     5   ar
    43     4    10    1
    44    11    10   ar
    45    11    53   ar
    46    76    75    1
    47    36     5   ar
    48    36    37    1
    49    54    53    1
    50    48    75   ar
    51    48    52   ar
    52     5     6    1
    53    17    52    1
    54    17    23    1
    55    75    70   ar
    56    10    13   ar
    57    18    23   ar
    58    18    34   ar
    59    53    47   ar
    60    52    50   ar
    61    35    34    1
    62    23    28   ar
    63    34    38   ar
    64    70    71    1
    65    70    58   ar
    66    44    42    1
    67    13    14    1
    68    13     8   ar
    69    47     8   ar
    70    47    42    1
    71    50    58   ar
    72    50    51    1
    73    58    59    1
    74    28    29    1
    75    28    40   ar
    76     8     9    1
    77    38    40   ar
    78    38    39    1
    79    42    43    1
    80    42    60    1
    81    40    41    1
    82    62    60    1
    83    57    55    1
    84    60    55    1
    85    60    61    1
    86    55    56    1
    87    55    63    1
    88    65    63    1
    89    73    72    1
    90    63    72    1
    91    63    64    1
    92    72    74    1
    93    72    77    1
    94    79    77    1
    95    91    90    1
    96    77    90    1
    97    77    78    1
    98    99    96    1
    99    88    87    1
   100    90    87    1
   101    90    92    1
   102    98    96    1
   103    96    97    1
   104    96    84    1
   105    87    89    1
   106    87    84    1
   107    84    86    1
   108    84    85    1
