@<TRIPOS>MOLECULE
CSD_code = YALHUP | q = 0 | S = 0 | Stoichiometry = C34H55BCoN7 | MND = 4
 98 105 0 0 0
SMALL
GASTEIGER

@<TRIPOS>ATOM
      1 CO         13.5012    2.4912    7.7156 Co.oh   1  UNL1        0.0000
      2 B          11.7314    3.5008   10.1147 B       1  UNL1        0.0000
      3 H          10.9278    3.7963   10.9257 H       1  UNL1        0.0000
      4 N          12.5558    1.3918    9.0229 N.3     1  UNL1        0.0000
      5 N          11.9010    1.9785   10.0289 N.pl3   1  UNL1        0.0000
      6 N          14.1827    3.7841    9.6887 N.ar    1  UNL1        0.0000
      7 N          13.1131    4.0818   10.4379 N.ar    1  UNL1        0.0000
      8 N          12.0778    3.6890    7.6773 N.3     1  UNL1        0.0000
      9 N          11.3353    4.0123    8.7309 N.pl3   1  UNL1        0.0000
     10 N          14.7090    0.7492    7.1472 N.4     1  UNL1        0.0000
     11 H          15.2071    0.6089    8.0263 H       1  UNL1        0.0000
     12 C          13.2649   -0.9301    8.3919 C.3     1  UNL1        0.0000
     13 C          12.6318    0.0918    9.2899 C.3     1  UNL1        0.0000
     14 C          12.0087   -0.1627   10.5154 C.2     1  UNL1        0.0000
     15 H          11.8983   -1.1040   11.0148 H       1  UNL1        0.0000
     16 C          11.5595    1.0663   10.9557 C.2     1  UNL1        0.0000
     17 C          10.8362    1.3823   12.2155 C.3     1  UNL1        0.0000
     18 H          11.4312    2.0466   12.8400 H       1  UNL1        0.0000
     19 H          10.6428    0.4640   12.7641 H       1  UNL1        0.0000
     20 H           9.8892    1.8750   12.0044 H       1  UNL1        0.0000
     21 C          13.6958   -0.3202    7.0519 C.3     1  UNL1        0.0000
     22 H          14.0670   -1.1507    6.4430 H       1  UNL1        0.0000
     23 H          12.8087    0.0833    6.5563 H       1  UNL1        0.0000
     24 C          14.4546   -1.5736    9.1201 C.3     1  UNL1        0.0000
     25 H          15.1708   -0.8262    9.4566 H       1  UNL1        0.0000
     26 H          14.9638   -2.2851    8.4725 H       1  UNL1        0.0000
     27 H          14.1030   -2.1035   10.0014 H       1  UNL1        0.0000
     28 C          12.2282   -2.0208    8.0789 C.3     1  UNL1        0.0000
     29 H          11.8853   -2.4948    8.9938 H       1  UNL1        0.0000
     30 H          12.6604   -2.7864    7.4371 H       1  UNL1        0.0000
     31 H          11.3666   -1.5895    7.5747 H       1  UNL1        0.0000
     32 C          16.6220    4.2435    9.6899 C.3     1  UNL1        0.0000
     33 C          15.2317    4.3848   10.2427 C.ar    1  UNL1        0.0000
     34 C          14.8234    5.0943   11.3772 C.ar    1  UNL1        0.0000
     35 H          15.4222    5.6836   12.0412 H       1  UNL1        0.0000
     36 C          13.4630    4.8762   11.4671 C.ar    1  UNL1        0.0000
     37 C          12.5112    5.4018   12.4826 C.3     1  UNL1        0.0000
     38 H          11.7369    6.0044   12.0105 H       1  UNL1        0.0000
     39 H          13.0496    6.0200   13.1970 H       1  UNL1        0.0000
     40 H          12.0239    4.5891   13.0188 H       1  UNL1        0.0000
     41 C          16.6083    4.7257    8.2376 C.3     1  UNL1        0.0000
     42 H          15.7985    4.2263    7.7130 H       1  UNL1        0.0000
     43 H          17.5534    4.5127    7.7418 H       1  UNL1        0.0000
     44 H          16.4297    5.7986    8.2025 H       1  UNL1        0.0000
     45 C          16.9991    2.7598    9.7628 C.3     1  UNL1        0.0000
     46 H          17.0507    2.4376   10.8014 H       1  UNL1        0.0000
     47 H          17.9667    2.5793    9.2962 H       1  UNL1        0.0000
     48 H          16.2299    2.1768    9.2629 H       1  UNL1        0.0000
     49 C          17.6324    5.0640   10.4928 C.3     1  UNL1        0.0000
     50 H          17.3708    6.1195   10.4772 H       1  UNL1        0.0000
     51 H          18.6254    4.9504   10.0611 H       1  UNL1        0.0000
     52 H          17.6686    4.7297   11.5272 H       1  UNL1        0.0000
     53 C          12.2517    4.1824    5.2683 C.3     1  UNL1        0.0000
     54 C          11.6178    4.3548    6.6183 C.3     1  UNL1        0.0000
     55 C          10.5301    5.1339    7.0167 C.2     1  UNL1        0.0000
     56 H           9.9320    5.7854    6.4127 H       1  UNL1        0.0000
     57 C          10.3843    4.8930    8.3715 C.2     1  UNL1        0.0000
     58 C           9.3870    5.4679    9.3125 C.3     1  UNL1        0.0000
     59 H           8.8218    4.6781    9.8038 H       1  UNL1        0.0000
     60 H           8.6993    6.1099    8.7681 H       1  UNL1        0.0000
     61 H           9.8820    6.0568   10.0831 H       1  UNL1        0.0000
     62 C          13.7630    4.0969    5.4882 C.3     1  UNL1        0.0000
     63 H          14.1443    5.0422    5.8705 H       1  UNL1        0.0000
     64 H          14.2836    3.8589    4.5618 H       1  UNL1        0.0000
     65 H          13.9637    3.3000    6.2391 H       1  UNL1        0.0000
     66 C          11.7430    2.8701    4.6584 C.3     1  UNL1        0.0000
     67 H          11.9761    2.0441    5.3291 H       1  UNL1        0.0000
     68 H          12.2074    2.6872    3.6909 H       1  UNL1        0.0000
     69 H          10.6644    2.9082    4.5236 H       1  UNL1        0.0000
     70 C          11.9203    5.3535    4.3421 C.3     1  UNL1        0.0000
     71 H          10.8539    5.3886    4.1347 H       1  UNL1        0.0000
     72 H          12.4487    5.2441    3.3969 H       1  UNL1        0.0000
     73 H          12.2156    6.2960    4.7975 H       1  UNL1        0.0000
     74 C          15.7474    0.6521    6.0869 C.3     1  UNL1        0.0000
     75 C          16.6166   -0.6071    6.2567 C.3     1  UNL1        0.0000
     76 H          17.0933   -0.5912    7.2412 H       1  UNL1        0.0000
     77 H          16.0139   -1.5150    6.1934 H       1  UNL1        0.0000
     78 C          17.6902   -0.6611    5.1686 C.3     1  UNL1        0.0000
     79 H          18.2832   -1.5741    5.2980 H       1  UNL1        0.0000
     80 C          18.6013    0.5585    5.2802 C.3     1  UNL1        0.0000
     81 H          19.0965    0.5677    6.2540 H       1  UNL1        0.0000
     82 H          19.3760    0.5173    4.5116 H       1  UNL1        0.0000
     83 C          17.7580    1.8194    5.1109 C.3     1  UNL1        0.0000
     84 H          18.3966    2.7043    5.2101 H       1  UNL1        0.0000
     85 C          16.6796    1.8624    6.1919 C.3     1  UNL1        0.0000
     86 H          17.1526    1.8727    7.1732 H       1  UNL1        0.0000
     87 H          16.1039    2.7790    6.0845 H       1  UNL1        0.0000
     88 C          15.1088    0.6430    4.6943 C.3     1  UNL1        0.0000
     89 H          14.4984    1.5362    4.5704 H       1  UNL1        0.0000
     90 H          14.4574   -0.2230    4.5719 H       1  UNL1        0.0000
     91 C          16.1942    0.5936    3.6185 C.3     1  UNL1        0.0000
     92 H          15.7168    0.5828    2.6320 H       1  UNL1        0.0000
     93 C          17.1007    1.8164    3.7333 C.3     1  UNL1        0.0000
     94 H          16.5173    2.7296    3.5971 H       1  UNL1        0.0000
     95 H          17.8647    1.7892    2.9533 H       1  UNL1        0.0000
     96 C          17.0260   -0.6764    3.7927 C.3     1  UNL1        0.0000
     97 H          17.7895   -0.7319    3.0138 H       1  UNL1        0.0000
     98 H          16.3866   -1.5573    3.6957 H       1  UNL1        0.0000
@<TRIPOS>BOND
     1    92    91    1
     2    95    93    1
     3    97    96    1
     4    72    70    1
     5    94    93    1
     6    91    93    1
     7    91    96    1
     8    91    88    1
     9    68    66    1
    10    98    96    1
    11    93    83    1
    12    96    78    1
    13    71    70    1
    14    70    73    1
    15    70    53    1
    16    82    80    1
    17    69    66    1
    18    64    62    1
    19    89    88    1
    20    90    88    1
    21    66    53    1
    22    66    67    1
    23    88    74    1
    24    83    84    1
    25    83    80    1
    26    83    85    1
    27    78    80    1
    28    78    79    1
    29    78    75    1
    30    53    62    1
    31    53    54    1
    32    80    81    1
    33    62    63    1
    34    62    65    1
    35    87    85    1
    36    74    85    1
    37    74    75    1
    38    74    10    1
    39    85    86    1
    40    77    75    1
    41    75    76    1
    42    56    55    1
    43    22    21    1
    44    23    21    1
    45    54    55    1
    46    54     8    1
    47    55    57    2
    48    21    10    1
    49    21    12    1
    50    10     1    1
    51    10    11    1
    52    30    28    1
    53    31    28    1
    54     8     1    1
    55     8     9    1
    56    42    41    1
    57     1     4    1
    58    43    41    1
    59    28    12    1
    60    28    29    1
    61    44    41    1
    62    41    32    1
    63    57     9    1
    64    57    58    1
    65    12    24    1
    66    12    13    1
    67    26    24    1
    68     9     2    1
    69    60    58    1
    70     4    13    1
    71     4     5    1
    72    24    25    1
    73    24    27    1
    74    48    45    1
    75    13    14    1
    76    47    45    1
    77    58    59    1
    78    58    61    1
    79     6    33   ar
    80     6     7   ar
    81    32    45    1
    82    32    33    1
    83    32    49    1
    84    45    46    1
    85     5     2    1
    86     5    16    1
    87    51    49    1
    88     2     7    1
    89     2     3    1
    90    33    34   ar
    91     7    36   ar
    92    50    49    1
    93    49    52    1
    94    14    16    2
    95    14    15    1
    96    16    17    1
    97    34    36   ar
    98    34    35    1
    99    36    37    1
   100    20    17    1
   101    38    37    1
   102    17    19    1
   103    17    18    1
   104    37    40    1
   105    37    39    1
