@<TRIPOS>MOLECULE
CSD_code = YEYPIC | q = 0 | S = 0 | Stoichiometry = C36H38CoN7O6 | MND = 6
 88 95 0 0 0
SMALL
GASTEIGER

@<TRIPOS>ATOM
      1 CO         16.2538   12.5381    8.9898 Co.oh   1  UNL1        0.0000
      2 N          14.3572   14.7625   11.8625 N.am    1  UNL1        0.0000
      3 H          13.7531   15.5165   12.1404 H       1  UNL1        0.0000
      4 N          15.7107   13.5674   10.5565 N.am    1  UNL1        0.0000
      5 N          15.0202    9.4736   11.3248 N.am    1  UNL1        0.0000
      6 H          14.2749    8.9919   11.7965 H       1  UNL1        0.0000
      7 N          15.9967   10.9283    9.9581 N.am    1  UNL1        0.0000
      8 N          18.0980   12.7743    9.5613 N.4     1  UNL1        0.0000
      9 H          18.1849   12.6363   10.5733 H       1  UNL1        0.0000
     10 H          18.6075   12.0018    9.1223 H       1  UNL1        0.0000
     11 N          16.4652   14.1562    7.9615 N.4     1  UNL1        0.0000
     12 H          16.0310   14.9050    8.5169 H       1  UNL1        0.0000
     13 N          14.5003   12.4384    8.1676 N.4     1  UNL1        0.0000
     14 H          14.5531   11.5325    7.6509 H       1  UNL1        0.0000
     15 H          13.7485   12.3385    8.8557 H       1  UNL1        0.0000
     16 O          14.4837   15.2969    9.6430 O.2     1  UNL1        0.0000
     17 O          16.9327   12.4616   12.1459 O.2     1  UNL1        0.0000
     18 O          13.7873   11.2434   10.5623 O.2     1  UNL1        0.0000
     19 O          18.0686    9.9822    9.7440 O.2     1  UNL1        0.0000
     20 O          17.0085   11.5334    7.5296 O.3     1  UNL1        0.0000
     21 O          15.3530   10.1770    6.9244 O.2     1  UNL1        0.0000
     22 C          14.7963   14.5943   10.5947 C.2     1  UNL1        0.0000
     23 C          16.0248   13.2025   11.8142 C.2     1  UNL1        0.0000
     24 C          15.0907   13.9394   12.7947 C.3     1  UNL1        0.0000
     25 C          15.8110   14.8245   13.7922 C.ar    1  UNL1        0.0000
     26 C          17.1468   15.1685   13.6474 C.ar    1  UNL1        0.0000
     27 H          17.7262   14.7500   12.8388 H       1  UNL1        0.0000
     28 C          17.7478   16.0273   14.5524 C.ar    1  UNL1        0.0000
     29 H          18.7909   16.2820   14.4355 H       1  UNL1        0.0000
     30 C          17.0182   16.5586   15.6009 C.ar    1  UNL1        0.0000
     31 H          17.4887   17.2294   16.3043 H       1  UNL1        0.0000
     32 C          15.6817   16.2249   15.7460 C.ar    1  UNL1        0.0000
     33 H          15.1058   16.6360   16.5619 H       1  UNL1        0.0000
     34 C          15.0812   15.3639   14.8466 C.ar    1  UNL1        0.0000
     35 H          14.0403   15.0974   14.9635 H       1  UNL1        0.0000
     36 C          14.2516   12.8844   13.4818 C.ar    1  UNL1        0.0000
     37 C          14.8055   12.1731   14.5390 C.ar    1  UNL1        0.0000
     38 H          15.8150   12.3896   14.8549 H       1  UNL1        0.0000
     39 C          14.0710   11.1839   15.1679 C.ar    1  UNL1        0.0000
     40 H          14.5038   10.6358   15.9923 H       1  UNL1        0.0000
     41 C          12.7866   10.8914   14.7393 C.ar    1  UNL1        0.0000
     42 H          12.2162   10.1156   15.2295 H       1  UNL1        0.0000
     43 C          12.2404   11.5908   13.6771 C.ar    1  UNL1        0.0000
     44 H          11.2444   11.3594   13.3303 H       1  UNL1        0.0000
     45 C          12.9688   12.5843   13.0474 C.ar    1  UNL1        0.0000
     46 H          12.5452   13.1141   12.2091 H       1  UNL1        0.0000
     47 C          14.8277   10.6096   10.6155 C.2     1  UNL1        0.0000
     48 C          16.9335    9.9950   10.1803 C.2     1  UNL1        0.0000
     49 C          16.3357    8.9171   11.1174 C.3     1  UNL1        0.0000
     50 C          17.1958    8.9011   12.3582 C.ar    1  UNL1        0.0000
     51 C          16.7252    9.3727   13.5742 C.ar    1  UNL1        0.0000
     52 H          15.7177    9.7504   13.6519 H       1  UNL1        0.0000
     53 C          17.5512    9.3743   14.6846 C.ar    1  UNL1        0.0000
     54 H          17.1764    9.7438   15.6281 H       1  UNL1        0.0000
     55 C          18.8512    8.9110   14.5896 C.ar    1  UNL1        0.0000
     56 H          19.4936    8.9132   15.4584 H       1  UNL1        0.0000
     57 C          19.3284    8.4519   13.3728 C.ar    1  UNL1        0.0000
     58 H          20.3455    8.0973   13.2893 H       1  UNL1        0.0000
     59 C          18.5073    8.4478   12.2610 C.ar    1  UNL1        0.0000
     60 H          18.8791    8.1064   11.3074 H       1  UNL1        0.0000
     61 C          16.2330    7.5729   10.4228 C.ar    1  UNL1        0.0000
     62 C          16.4781    6.3853   11.1001 C.ar    1  UNL1        0.0000
     63 H          16.7802    6.4096   12.1368 H       1  UNL1        0.0000
     64 C          16.3381    5.1703   10.4522 C.ar    1  UNL1        0.0000
     65 H          16.5340    4.2535   10.9892 H       1  UNL1        0.0000
     66 C          15.9468    5.1280    9.1253 C.ar    1  UNL1        0.0000
     67 H          15.8429    4.1786    8.6205 H       1  UNL1        0.0000
     68 C          15.6829    6.3084    8.4515 C.ar    1  UNL1        0.0000
     69 H          15.3678    6.2872    7.4190 H       1  UNL1        0.0000
     70 C          15.8183    7.5245    9.0965 C.ar    1  UNL1        0.0000
     71 H          15.5983    8.4375    8.5645 H       1  UNL1        0.0000
     72 C          18.5724   14.0864    9.1158 C.3     1  UNL1        0.0000
     73 H          19.6630   14.1154    9.0129 H       1  UNL1        0.0000
     74 H          18.2715   14.8371    9.8527 H       1  UNL1        0.0000
     75 C          17.8939   14.3980    7.7769 C.3     1  UNL1        0.0000
     76 H          18.1040   15.4239    7.4510 H       1  UNL1        0.0000
     77 H          18.2577   13.6973    7.0214 H       1  UNL1        0.0000
     78 C          15.6478   14.0324    6.7520 C.3     1  UNL1        0.0000
     79 H          16.1022   13.2873    6.0953 H       1  UNL1        0.0000
     80 H          15.5685   14.9854    6.2158 H       1  UNL1        0.0000
     81 C          14.2759   13.5485    7.2322 C.3     1  UNL1        0.0000
     82 H          13.7838   14.3665    7.7630 H       1  UNL1        0.0000
     83 H          13.6552   13.2377    6.3858 H       1  UNL1        0.0000
     84 C          16.5437   10.4890    6.9714 C.2     1  UNL1        0.0000
     85 C          17.5980    9.6087    6.3167 C.3     1  UNL1        0.0000
     86 H          17.1239    8.8630    5.6862 H       1  UNL1        0.0000
     87 H          18.1493    9.1195    7.1177 H       1  UNL1        0.0000
     88 H          18.2912   10.2144    5.7392 H       1  UNL1        0.0000
@<TRIPOS>BOND
     1    86    85    1
     2    88    85    1
     3    79    78    1
     4    80    78    1
     5    85    84    1
     6    85    87    1
     7    83    81    1
     8    78    81    1
     9    78    11    1
    10    21    84    2
    11    84    20    1
    12    77    75    1
    13    81    82    1
    14    81    13    1
    15    69    68    1
    16    76    75    1
    17    20     1    1
    18    14    13    1
    19    75    11    1
    20    75    72    1
    21    11    12    1
    22    11     1    1
    23    13    15    1
    24    13     1    1
    25    68    70   ar
    26    68    66   ar
    27    71    70    1
    28    67    66    1
    29     1     8    1
    30     1     7    1
    31     1     4    1
    32    73    72    1
    33    70    61   ar
    34    72     8    1
    35    72    74    1
    36    10     8    1
    37    66    64   ar
    38     8     9    1
    39    16    22    2
    40    19    48    2
    41     7    48   am
    42     7    47   am
    43    48    49    1
    44    61    62   ar
    45    61    49    1
    46    64    65    1
    47    64    62   ar
    48     4    22   am
    49     4    23   am
    50    18    47    2
    51    22     2   am
    52    47     5   am
    53    62    63    1
    54    49     5    1
    55    49    50    1
    56    60    59    1
    57     5     6    1
    58    23    17    2
    59    23    24    1
    60     2     3    1
    61     2    24    1
    62    46    45    1
    63    59    50   ar
    64    59    57   ar
    65    50    51   ar
    66    24    36    1
    67    24    25    1
    68    27    26    1
    69    45    36   ar
    70    45    43   ar
    71    58    57    1
    72    44    43    1
    73    57    55   ar
    74    36    37   ar
    75    51    52    1
    76    51    53   ar
    77    26    25   ar
    78    26    28   ar
    79    43    41   ar
    80    25    34   ar
    81    29    28    1
    82    37    38    1
    83    37    39   ar
    84    28    30   ar
    85    55    53   ar
    86    55    56    1
    87    53    54    1
    88    41    39   ar
    89    41    42    1
    90    34    35    1
    91    34    32   ar
    92    39    40    1
    93    30    32   ar
    94    30    31    1
    95    32    33    1
