@<TRIPOS>MOLECULE
CSD_code = YIKDUU | q = 1 | S = 0 | Stoichiometry = C28H26CoF2N10S2(1+) | MND = 6
 69 76 0 0 0
SMALL
GASTEIGER

@<TRIPOS>ATOM
      1 CO          5.2211    0.9443    3.8049 Co.oh   1  UNL1        0.0000
      2 S           3.3177    2.1793    3.5665 S.3     1  UNL1        0.0000
      3 S           6.4095    2.5388    2.6869 S.3     1  UNL1        0.0000
      4 N           6.7200   -0.2139    3.7101 N.pl3   1  UNL1        0.0000
      5 N           8.7083   -2.0565    3.3131 N.2     1  UNL1        0.0000
      6 N           4.7353    0.1244    2.2350 N.pl3   1  UNL1        0.0000
      7 N           3.6500    0.4506    1.5589 N.2     1  UNL1        0.0000
      8 N           1.7959    1.8540    1.4751 N.pl3   1  UNL1        0.0000
      9 H           1.3570    2.6375    1.9454 H       1  UNL1        0.0000
     10 N           4.3058   -0.2039    5.0053 N.pl3   1  UNL1        0.0000
     11 N           3.1639   -1.6953    6.9998 N.2     1  UNL1        0.0000
     12 N           5.6855    1.8500    5.3337 N.pl3   1  UNL1        0.0000
     13 N           6.4099    2.9529    5.3246 N.2     1  UNL1        0.0000
     14 N           7.5205    4.5033    3.9911 N.pl3   1  UNL1        0.0000
     15 H           7.6995    4.7525    3.0248 H       1  UNL1        0.0000
     16 C           7.7302   -0.3181    4.5685 C.3     1  UNL1        0.0000
     17 H           7.7386    0.3311    5.4313 H       1  UNL1        0.0000
     18 C           8.7458   -1.2319    4.3441 C.2     1  UNL1        0.0000
     19 H           9.5923   -1.3166    5.0081 H       1  UNL1        0.0000
     20 C           7.7148   -1.9870    2.4513 C.2     1  UNL1        0.0000
     21 C           6.6914   -1.0117    2.6137 C.2     1  UNL1        0.0000
     22 C           7.7589   -3.0027    1.3637 C.3     1  UNL1        0.0000
     23 H           8.0583   -2.5472    0.4217 H       1  UNL1        0.0000
     24 H           6.7986   -3.4896    1.2265 H       1  UNL1        0.0000
     25 H           8.5091   -3.7429    1.6294 H       1  UNL1        0.0000
     26 C           5.5761   -0.7527    1.7428 C.3     1  UNL1        0.0000
     27 C           5.3613   -1.3320    0.3852 C.3     1  UNL1        0.0000
     28 H           4.9294   -2.3304    0.4413 H       1  UNL1        0.0000
     29 H           6.2921   -1.3830   -0.1695 H       1  UNL1        0.0000
     30 H           4.6655   -0.6904   -0.1514 H       1  UNL1        0.0000
     31 C           2.9077    1.4040    2.0693 C.2     1  UNL1        0.0000
     32 C           1.1897    1.4731    0.2764 C.ar    1  UNL1        0.0000
     33 C           1.5456    0.3210   -0.4196 C.ar    1  UNL1        0.0000
     34 H           2.3167   -0.3184   -0.0274 H       1  UNL1        0.0000
     35 C           0.9047    0.0003   -1.6007 C.ar    1  UNL1        0.0000
     36 H           1.1674   -0.8875   -2.1532 H       1  UNL1        0.0000
     37 C          -0.0941    0.8326   -2.0767 C.ar    1  UNL1        0.0000
     38 C          -0.4727    1.9769   -1.3933 C.ar    1  UNL1        0.0000
     39 H          -1.2578    2.6021   -1.7864 H       1  UNL1        0.0000
     40 C           0.1716    2.2920   -0.2147 C.ar    1  UNL1        0.0000
     41 H          -0.1120    3.1815    0.3280 H       1  UNL1        0.0000
     42 C           3.5981   -1.2925    4.7186 C.3     1  UNL1        0.0000
     43 H           3.4978   -1.5805    3.6827 H       1  UNL1        0.0000
     44 C           3.0000   -2.0233    5.7311 C.2     1  UNL1        0.0000
     45 H           2.3957   -2.8933    5.5245 H       1  UNL1        0.0000
     46 C           4.4385    0.1840    6.2981 C.2     1  UNL1        0.0000
     47 C           3.8693   -0.6295    7.3176 C.2     1  UNL1        0.0000
     48 C           4.0242   -0.3958    8.7796 C.3     1  UNL1        0.0000
     49 H           3.3944    0.4291    9.1074 H       1  UNL1        0.0000
     50 H           5.0532   -0.1775    9.0475 H       1  UNL1        0.0000
     51 H           3.6943   -1.2928    9.2972 H       1  UNL1        0.0000
     52 C           5.1780    1.4074    6.4585 C.3     1  UNL1        0.0000
     53 C           5.3422    2.1821    7.7226 C.3     1  UNL1        0.0000
     54 H           6.1353    1.7682    8.3440 H       1  UNL1        0.0000
     55 H           4.4204    2.1971    8.2940 H       1  UNL1        0.0000
     56 H           5.6127    3.2032    7.4621 H       1  UNL1        0.0000
     57 C           6.8029    3.3846    4.1500 C.2     1  UNL1        0.0000
     58 C           7.9950    5.4193    4.9318 C.ar    1  UNL1        0.0000
     59 C           7.9872    5.1711    6.3018 C.ar    1  UNL1        0.0000
     60 H           7.6065    4.2341    6.6686 H       1  UNL1        0.0000
     61 C           8.4736    6.1203    7.1798 C.ar    1  UNL1        0.0000
     62 H           8.4749    5.9456    8.2437 H       1  UNL1        0.0000
     63 C           8.9709    7.3123    6.6811 C.ar    1  UNL1        0.0000
     64 C           8.9997    7.5744    5.3208 C.ar    1  UNL1        0.0000
     65 H           9.3982    8.5096    4.9625 H       1  UNL1        0.0000
     66 C           8.5119    6.6227    4.4492 C.ar    1  UNL1        0.0000
     67 H           8.5267    6.8139    3.3864 H       1  UNL1        0.0000
     68 F          -0.7133    0.5200   -3.2236 F       1  UNL1        0.0000
     69 F           9.4409    8.2322    7.5351 F       1  UNL1        0.0000
@<TRIPOS>BOND
     1    68    37    1
     2    36    35    1
     3    37    35   ar
     4    37    38   ar
     5    39    38    1
     6    35    33   ar
     7    38    40   ar
     8    33    34    1
     9    33    32   ar
    10    40    32   ar
    11    40    41    1
    12    29    27    1
    13    30    27    1
    14    32     8    1
    15    27    28    1
    16    27    26    1
    17    23    22    1
    18    24    22    1
    19    22    25    1
    20    22    20    1
    21     8     9    1
    22     8    31    1
    23     7    31    2
    24     7     6    1
    25    26     6    1
    26    26    21    1
    27    31     2    1
    28     6     1    1
    29    20    21    2
    30    20     5    1
    31    21     4    1
    32     3     1    1
    33     3    57    1
    34    15    14    1
    35     5    18    2
    36    67    66    1
    37     2     1    1
    38    43    42    1
    39     4     1    1
    40     4    16    1
    41     1    10    1
    42     1    12    1
    43    14    57    1
    44    14    58    1
    45    57    13    2
    46    18    16    1
    47    18    19    1
    48    66    58   ar
    49    66    64   ar
    50    16    17    1
    51    42    10    1
    52    42    44    1
    53    58    59   ar
    54    65    64    1
    55    10    46    1
    56    64    63   ar
    57    13    12    1
    58    12    52    1
    59    45    44    1
    60    44    11    2
    61    46    52    1
    62    46    47    2
    63    59    60    1
    64    59    61   ar
    65    52    53    1
    66    63    61   ar
    67    63    69    1
    68    11    47    1
    69    61    62    1
    70    47    48    1
    71    56    53    1
    72    53    55    1
    73    53    54    1
    74    48    50    1
    75    48    49    1
    76    48    51    1
