@<TRIPOS>MOLECULE
CSD_code = YIWTIK | q = 1 | S = 0 | Stoichiometry = C30H48CoN6O2(1+) | MND = 6
 87 92 0 0 0
SMALL
GASTEIGER

@<TRIPOS>ATOM
      1 CO          0.0502    6.7733    5.4668 Co.oh   1  UNL1        0.0000
      2 O           1.9080    6.6940    5.1164 O.3     1  UNL1        0.0000
      3 C           2.5985    7.4477    4.3297 C.ar    1  UNL1        0.0000
      4 C           3.8477    6.9898    3.8460 C.ar    1  UNL1        0.0000
      5 H           4.1759    6.0054    4.1466 H       1  UNL1        0.0000
      6 C           4.6187    7.7650    3.0189 C.ar    1  UNL1        0.0000
      7 H           5.5620    7.3832    2.6583 H       1  UNL1        0.0000
      8 C           4.1995    9.0415    2.6329 C.ar    1  UNL1        0.0000
      9 H           4.8174    9.6374    1.9809 H       1  UNL1        0.0000
     10 C           3.0056    9.5262    3.0992 C.ar    1  UNL1        0.0000
     11 H           2.6714   10.5148    2.8186 H       1  UNL1        0.0000
     12 C           2.1860    8.7533    3.9401 C.ar    1  UNL1        0.0000
     13 C           1.0023    9.3079    4.4927 C.3     1  UNL1        0.0000
     14 H           0.8871   10.3866    4.3643 H       1  UNL1        0.0000
     15 N           0.0968    8.6723    5.1535 N.3     1  UNL1        0.0000
     16 C          -0.8857    9.4707    5.8533 C.3     1  UNL1        0.0000
     17 H          -1.8563    8.9797    5.7856 H       1  UNL1        0.0000
     18 H          -0.9542   10.4725    5.4137 H       1  UNL1        0.0000
     19 C          -0.4726    9.5901    7.3237 C.3     1  UNL1        0.0000
     20 H           0.5098   10.0647    7.3763 H       1  UNL1        0.0000
     21 H          -1.1895   10.2277    7.8423 H       1  UNL1        0.0000
     22 C          -0.4154    8.2390    8.0292 C.3     1  UNL1        0.0000
     23 H          -0.1161    8.4134    9.0674 H       1  UNL1        0.0000
     24 H          -1.4058    7.7802    8.0456 H       1  UNL1        0.0000
     25 N           0.5378    7.3187    7.3869 N.4     1  UNL1        0.0000
     26 C           0.9245    6.2258    8.2951 C.3     1  UNL1        0.0000
     27 H           1.4306    5.4620    7.7030 H       1  UNL1        0.0000
     28 H           0.0244    5.7872    8.7350 H       1  UNL1        0.0000
     29 C           1.8949    6.6725    9.3941 C.3     1  UNL1        0.0000
     30 H           1.4327    7.4055   10.0545 H       1  UNL1        0.0000
     31 H           2.1349    5.8009   10.0043 H       1  UNL1        0.0000
     32 C           3.1970    7.2246    8.8107 C.3     1  UNL1        0.0000
     33 H           3.9361    7.3498    9.6168 H       1  UNL1        0.0000
     34 H           3.5945    6.4915    8.1047 H       1  UNL1        0.0000
     35 N           2.9948    8.4792    8.0844 N.3     1  UNL1        0.0000
     36 C           4.0669    8.7122    7.1298 C.3     1  UNL1        0.0000
     37 H           3.8500    9.6167    6.5625 H       1  UNL1        0.0000
     38 H           4.1247    7.8781    6.4342 H       1  UNL1        0.0000
     39 H           5.0424    8.8334    7.6177 H       1  UNL1        0.0000
     40 C           2.8936    9.6111    8.9924 C.3     1  UNL1        0.0000
     41 H           3.8129    9.7543    9.5757 H       1  UNL1        0.0000
     42 H           2.0677    9.4693    9.6857 H       1  UNL1        0.0000
     43 H           2.7115   10.5177    8.4171 H       1  UNL1        0.0000
     44 O          -1.8082    6.8516    5.8170 O.3     1  UNL1        0.0000
     45 C          -2.4971    6.0993    6.6065 C.ar    1  UNL1        0.0000
     46 C          -3.7457    6.5576    7.0916 C.ar    1  UNL1        0.0000
     47 H          -4.0751    7.5410    6.7892 H       1  UNL1        0.0000
     48 C          -4.5144    5.7842    7.9226 C.ar    1  UNL1        0.0000
     49 H          -5.4571    6.1665    8.2841 H       1  UNL1        0.0000
     50 C          -4.0936    4.5090    8.3111 C.ar    1  UNL1        0.0000
     51 H          -4.7095    3.9146    8.9662 H       1  UNL1        0.0000
     52 C          -2.9005    4.0237    7.8433 C.ar    1  UNL1        0.0000
     53 H          -2.5651    3.0360    8.1258 H       1  UNL1        0.0000
     54 C          -2.0832    4.7948    6.9985 C.ar    1  UNL1        0.0000
     55 C          -0.9005    4.2394    6.4446 C.3     1  UNL1        0.0000
     56 H          -0.7851    3.1609    6.5744 H       1  UNL1        0.0000
     57 N           0.0035    4.8741    5.7810 N.3     1  UNL1        0.0000
     58 C           0.9849    4.0749    5.0808 C.3     1  UNL1        0.0000
     59 H           1.0529    3.0731    5.5205 H       1  UNL1        0.0000
     60 H           1.9560    4.5651    5.1477 H       1  UNL1        0.0000
     61 C           0.5708    3.9557    3.6107 C.3     1  UNL1        0.0000
     62 H           1.2863    3.3168    3.0918 H       1  UNL1        0.0000
     63 H          -0.4125    3.4828    3.5587 H       1  UNL1        0.0000
     64 C           0.5156    5.3068    2.9051 C.3     1  UNL1        0.0000
     65 H           1.5066    5.7644    2.8894 H       1  UNL1        0.0000
     66 H           0.2168    5.1326    1.8668 H       1  UNL1        0.0000
     67 N          -0.4367    6.2285    3.5466 N.4     1  UNL1        0.0000
     68 C          -0.8207    7.3218    2.6377 C.3     1  UNL1        0.0000
     69 H           0.0806    7.7596    2.1994 H       1  UNL1        0.0000
     70 H          -1.3272    8.0862    3.2289 H       1  UNL1        0.0000
     71 C          -1.7897    6.8761    1.5371 C.3     1  UNL1        0.0000
     72 H          -2.0262    7.7472    0.9249 H       1  UNL1        0.0000
     73 H          -1.3280    6.1408    0.8790 H       1  UNL1        0.0000
     74 C          -3.0945    6.3280    2.1186 C.3     1  UNL1        0.0000
     75 H          -3.4923    7.0637    2.8216 H       1  UNL1        0.0000
     76 H          -3.8318    6.2021    1.3110 H       1  UNL1        0.0000
     77 N          -2.8963    5.0750    2.8486 N.3     1  UNL1        0.0000
     78 C          -3.9695    4.8474    3.8033 C.3     1  UNL1        0.0000
     79 H          -4.0264    5.6843    4.4955 H       1  UNL1        0.0000
     80 H          -3.7546    3.9448    4.3742 H       1  UNL1        0.0000
     81 H          -4.9449    4.7259    3.3149 H       1  UNL1        0.0000
     82 C          -2.7968    3.9402    1.9440 C.3     1  UNL1        0.0000
     83 H          -3.7159    3.7974    1.3603 H       1  UNL1        0.0000
     84 H          -2.6175    3.0349    2.5222 H       1  UNL1        0.0000
     85 H          -1.9699    4.0781    1.2512 H       1  UNL1        0.0000
     86 H           1.4224    7.8582    7.2805 H       1  UNL1        0.0000
     87 H          -1.3226    5.6908    3.6523 H       1  UNL1        0.0000
@<TRIPOS>BOND
     1    73    71    1
     2    72    71    1
     3    85    82    1
     4    76    74    1
     5    83    82    1
     6    71    74    1
     7    71    68    1
     8    66    64    1
     9    82    84    1
    10    82    77    1
    11     9     8    1
    12    74    75    1
    13    74    77    1
    14    69    68    1
    15     8     6   ar
    16     8    10   ar
    17    68    70    1
    18    68    67    1
    19     7     6    1
    20    11    10    1
    21    77    78    1
    22    65    64    1
    23    64    67    1
    24    64    61    1
    25     6     4   ar
    26    62    61    1
    27    10    12   ar
    28    81    78    1
    29    67    87    1
    30    67     1    1
    31    63    61    1
    32    61    58    1
    33    78    80    1
    34    78    79    1
    35     4     5    1
    36     4     3   ar
    37    12     3   ar
    38    12    13    1
    39     3     2    1
    40    14    13    1
    41    13    15    1
    42    58    60    1
    43    58    59    1
    44    58    57    1
    45     2     1    1
    46    15     1    1
    47    15    16    1
    48    18    16    1
    49     1    57    1
    50     1    44    1
    51     1    25    1
    52    57    55    1
    53    17    16    1
    54    44    45    1
    55    16    19    1
    56    38    36    1
    57    55    56    1
    58    55    54    1
    59    37    36    1
    60    45    54   ar
    61    45    46   ar
    62    47    46    1
    63    54    52   ar
    64    46    48   ar
    65    36    39    1
    66    36    35    1
    67    86    25    1
    68    19    20    1
    69    19    21    1
    70    19    22    1
    71    25    22    1
    72    25    26    1
    73    27    26    1
    74    52    53    1
    75    52    50   ar
    76    48    49    1
    77    48    50   ar
    78    22    24    1
    79    22    23    1
    80    35    32    1
    81    35    40    1
    82    34    32    1
    83    26    28    1
    84    26    29    1
    85    50    51    1
    86    43    40    1
    87    32    29    1
    88    32    33    1
    89    40    41    1
    90    40    42    1
    91    29    31    1
    92    29    30    1
