@<TRIPOS>MOLECULE
CSD_code = YUCYUS | q = 0 | S = 0 | Stoichiometry = C42H51CoN2P4 | MND = 5
 100 107 0 0 0
SMALL
GASTEIGER

@<TRIPOS>ATOM
      1 CO          4.8953    0.4902    5.5440 Co.oh   1  UNL1        0.0000
      2 N           4.8710    1.5308    2.2643 N.ar    1  UNL1        0.0000
      3 C           7.8780   -0.0534    7.3421 C.3     1  UNL1        0.0000
      4 H           8.5518   -0.8022    7.7571 H       1  UNL1        0.0000
      5 H           7.3742    0.4776    8.1463 H       1  UNL1        0.0000
      6 H           8.4517    0.6607    6.7530 H       1  UNL1        0.0000
      7 C           7.8076   -1.8800    5.2653 C.3     1  UNL1        0.0000
      8 H           8.3253   -2.5664    5.9346 H       1  UNL1        0.0000
      9 H           8.5400   -1.2546    4.7633 H       1  UNL1        0.0000
     10 H           7.2665   -2.4530    4.5149 H       1  UNL1        0.0000
     11 C           6.0563   -2.2103    7.3318 C.3     1  UNL1        0.0000
     12 H           6.9024   -2.6705    7.8412 H       1  UNL1        0.0000
     13 H           5.5596   -2.9555    6.7121 H       1  UNL1        0.0000
     14 H           5.3489   -1.8414    8.0645 H       1  UNL1        0.0000
     15 C           1.7255   -1.0075    4.6667 C.3     1  UNL1        0.0000
     16 H           0.6819   -1.0071    4.9797 H       1  UNL1        0.0000
     17 H           2.0630   -2.0358    4.5485 H       1  UNL1        0.0000
     18 H           1.8210   -0.5144    3.7036 H       1  UNL1        0.0000
     19 C           2.4670   -1.4315    7.2637 C.3     1  UNL1        0.0000
     20 H           1.4002   -1.6496    7.3091 H       1  UNL1        0.0000
     21 H           2.7901   -1.0384    8.2225 H       1  UNL1        0.0000
     22 H           3.0128   -2.3473    7.0487 H       1  UNL1        0.0000
     23 C           1.6665    1.1228    6.5684 C.3     1  UNL1        0.0000
     24 H           0.6608    0.7329    6.7233 H       1  UNL1        0.0000
     25 H           1.6337    1.9634    5.8807 H       1  UNL1        0.0000
     26 H           2.0725    1.4766    7.5151 H       1  UNL1        0.0000
     27 C           4.4592   -1.1982    2.4404 C.ar    1  UNL1        0.0000
     28 C           4.3647   -2.3909    3.1504 C.ar    1  UNL1        0.0000
     29 H           4.6770   -2.3967    4.1890 H       1  UNL1        0.0000
     30 C           3.8773   -3.5319    2.5429 C.ar    1  UNL1        0.0000
     31 H           3.8133   -4.4589    3.0953 H       1  UNL1        0.0000
     32 C           3.4619   -3.4824    1.2209 C.ar    1  UNL1        0.0000
     33 H           3.0725   -4.3699    0.7439 H       1  UNL1        0.0000
     34 C           3.5442   -2.2951    0.5123 C.ar    1  UNL1        0.0000
     35 H           3.2190   -2.2580   -0.5174 H       1  UNL1        0.0000
     36 C           4.0462   -1.1544    1.1149 C.ar    1  UNL1        0.0000
     37 H           4.1211   -0.2338    0.5546 H       1  UNL1        0.0000
     38 C           6.9209    0.0123    2.9441 C.ar    1  UNL1        0.0000
     39 C           7.4267   -0.9998    2.1370 C.ar    1  UNL1        0.0000
     40 H           6.7662   -1.7449    1.7165 H       1  UNL1        0.0000
     41 C           8.7828   -1.0523    1.8605 C.ar    1  UNL1        0.0000
     42 H           9.1690   -1.8411    1.2307 H       1  UNL1        0.0000
     43 C           9.6419   -0.0978    2.3785 C.ar    1  UNL1        0.0000
     44 H          10.6973   -0.1403    2.1522 H       1  UNL1        0.0000
     45 C           9.1431    0.9114    3.1885 C.ar    1  UNL1        0.0000
     46 H           9.8060    1.6610    3.5964 H       1  UNL1        0.0000
     47 C           7.7928    0.9579    3.4754 C.ar    1  UNL1        0.0000
     48 H           7.4002    1.7386    4.1128 H       1  UNL1        0.0000
     49 C           5.7212    1.8704    1.2323 C.ar    1  UNL1        0.0000
     50 H           6.5368    1.2391    0.9419 H       1  UNL1        0.0000
     51 C           5.3411    3.0650    0.7039 C.ar    1  UNL1        0.0000
     52 H           5.8126    3.5787   -0.1114 H       1  UNL1        0.0000
     53 C           4.2067    3.4914    1.4252 C.ar    1  UNL1        0.0000
     54 H           3.6451    4.3913    1.2623 H       1  UNL1        0.0000
     55 C           3.9343    2.5383    2.3697 C.ar    1  UNL1        0.0000
     56 C           2.7368    2.4926    3.2666 C.3     1  UNL1        0.0000
     57 H           2.8162    1.5848    3.8838 H       1  UNL1        0.0000
     58 C           1.4396    2.4319    2.4285 C.3     1  UNL1        0.0000
     59 H           1.3262    3.4010    1.9326 H       1  UNL1        0.0000
     60 C           1.5230    1.3615    1.3422 C.3     1  UNL1        0.0000
     61 H           0.5732    1.2893    0.8163 H       1  UNL1        0.0000
     62 H           1.7508    0.3862    1.7689 H       1  UNL1        0.0000
     63 H           2.2952    1.6062    0.6175 H       1  UNL1        0.0000
     64 C           0.2140    2.1844    3.3053 C.3     1  UNL1        0.0000
     65 H          -0.6922    2.2579    2.7069 H       1  UNL1        0.0000
     66 H           0.1527    2.9130    4.1084 H       1  UNL1        0.0000
     67 H           0.2522    1.1915    3.7438 H       1  UNL1        0.0000
     68 C           2.7659    3.7040    4.1515 C.ar    1  UNL1        0.0000
     69 C           1.9656    4.8123    4.2006 C.ar    1  UNL1        0.0000
     70 H           1.0901    5.0073    3.6132 H       1  UNL1        0.0000
     71 C           2.5049    5.6873    5.1719 C.ar    1  UNL1        0.0000
     72 H           2.1075    6.6432    5.4537 H       1  UNL1        0.0000
     73 C           3.6199    5.0914    5.6726 C.ar    1  UNL1        0.0000
     74 H           4.3117    5.4406    6.4121 H       1  UNL1        0.0000
     75 C           5.1250    2.5757    7.1043 C.ar    1  UNL1        0.0000
     76 C           5.3473    3.4945    8.1179 C.ar    1  UNL1        0.0000
     77 H           5.5957    4.5236    7.8953 H       1  UNL1        0.0000
     78 C           5.2693    3.0660    9.4315 C.ar    1  UNL1        0.0000
     79 H           5.4319    3.7621   10.2424 H       1  UNL1        0.0000
     80 C           4.9831    1.7378    9.6986 C.ar    1  UNL1        0.0000
     81 H           4.9128    1.4026   10.7256 H       1  UNL1        0.0000
     82 C           4.8053    0.8217    8.6720 C.ar    1  UNL1        0.0000
     83 H           4.6144   -0.2056    8.9498 H       1  UNL1        0.0000
     84 C           4.8844    1.2134    7.3386 C.ar    1  UNL1        0.0000
     85 C           6.4792    3.9618    5.0120 C.ar    1  UNL1        0.0000
     86 C           7.6588    3.8198    5.7379 C.ar    1  UNL1        0.0000
     87 H           7.7066    3.0825    6.5292 H       1  UNL1        0.0000
     88 C           8.7506    4.6183    5.4559 C.ar    1  UNL1        0.0000
     89 H           9.6589    4.5138    6.0329 H       1  UNL1        0.0000
     90 C           8.6805    5.5526    4.4346 C.ar    1  UNL1        0.0000
     91 H           9.5341    6.1771    4.2143 H       1  UNL1        0.0000
     92 C           7.5169    5.6806    3.6933 C.ar    1  UNL1        0.0000
     93 H           7.4647    6.4020    2.8906 H       1  UNL1        0.0000
     94 C           6.4215    4.8851    3.9728 C.ar    1  UNL1        0.0000
     95 H           5.5173    4.9789    3.3880 H       1  UNL1        0.0000
     96 P           6.6317   -0.8404    6.2444 P.3     1  UNL1        0.0000
     97 P           2.7870   -0.1910    5.9411 P.3     1  UNL1        0.0000
     98 P           5.1476    0.2205    3.3647 P.3     1  UNL1        0.0000
     99 P           5.1065    2.7975    5.3075 P.3     1  UNL1        0.0000
    100 N           3.7891    3.8763    5.0569 N.ar    1  UNL1        0.0000
@<TRIPOS>BOND
     1    35    34    1
     2    52    51    1
     3    34    36   ar
     4    34    32   ar
     5    37    36    1
     6    63    60    1
     7    51    49   ar
     8    51    53   ar
     9    33    32    1
    10    61    60    1
    11    50    49    1
    12    36    27   ar
    13    32    30   ar
    14    42    41    1
    15    49     2   ar
    16    54    53    1
    17    60    62    1
    18    60    58    1
    19    53    55   ar
    20    40    39    1
    21    41    39   ar
    22    41    43   ar
    23    59    58    1
    24    39    38   ar
    25    44    43    1
    26     2    55   ar
    27     2    98    1
    28    55    56    1
    29    43    45   ar
    30    58    56    1
    31    58    64    1
    32    27    28   ar
    33    27    98    1
    34    30    31    1
    35    30    28   ar
    36    65    64    1
    37    93    92    1
    38    38    98    1
    39    38    47   ar
    40    28    29    1
    41    45    47   ar
    42    45    46    1
    43    56    57    1
    44    56    68    1
    45    64    67    1
    46    64    66    1
    47    98     1    1
    48    95    94    1
    49    47    48    1
    50    70    69    1
    51    92    94   ar
    52    92    90   ar
    53    18    15    1
    54    94    85   ar
    55    68    69   ar
    56    68   100   ar
    57    69    71   ar
    58    91    90    1
    59    90    88   ar
    60    10     7    1
    61    17    15    1
    62    15    16    1
    63    15    97    1
    64     9     7    1
    65    85    99    1
    66    85    86   ar
    67   100    99    1
    68   100    73   ar
    69    71    72    1
    70    71    73   ar
    71     7     8    1
    72     7    96    1
    73    99     1    1
    74    99    75    1
    75    88    86   ar
    76    88    89    1
    77     1    97    1
    78     1    96    1
    79     1    84    1
    80    73    74    1
    81    86    87    1
    82    25    23    1
    83    97    23    1
    84    97    19    1
    85    96    11    1
    86    96     3    1
    87    23    24    1
    88    23    26    1
    89    13    11    1
    90     6     3    1
    91    22    19    1
    92    75    84   ar
    93    75    76   ar
    94    19    20    1
    95    19    21    1
    96    11    12    1
    97    11    14    1
    98    84    82   ar
    99     3     4    1
   100     3     5    1
   101    77    76    1
   102    76    78   ar
   103    82    83    1
   104    82    80   ar
   105    78    80   ar
   106    78    79    1
   107    80    81    1
