@<TRIPOS>MOLECULE
CSD_code = ZAPQIT | q = 1 | S = 0 | Stoichiometry = C30H22CoN8S2(1+) | MND = 6
 63 72 0 0 0
SMALL
GASTEIGER

@<TRIPOS>ATOM
      1 CO         14.8944    9.5158   12.0170 Co.oh   1  UNL1        0.0000
      2 C          12.7484    7.8416   12.1125 C.2     1  UNL1        0.0000
      3 N          13.3007    8.8393   12.8518 N.pl3   1  UNL1        0.0000
      4 S          17.7794    8.9496    8.8879 S.3     1  UNL1        0.0000
      5 C          11.5715    7.2012   12.5216 C.2     1  UNL1        0.0000
      6 H          11.1620    6.4184   11.9041 H       1  UNL1        0.0000
      7 C          13.8229   12.0083   11.7807 C.2     1  UNL1        0.0000
      8 N          13.8919   10.8532   11.0679 N.pl3   1  UNL1        0.0000
      9 S          17.4435    8.7046   15.3741 S.3     1  UNL1        0.0000
     10 C          10.9708    7.5796   13.7012 C.2     1  UNL1        0.0000
     11 H          10.0667    7.0981   14.0391 H       1  UNL1        0.0000
     12 N          15.3771    8.0726    9.7668 N.2     1  UNL1        0.0000
     13 N          14.5643    8.2026   10.7752 N.pl3   1  UNL1        0.0000
     14 C          13.1303   13.1231   11.2907 C.2     1  UNL1        0.0000
     15 H          13.0935   14.0187   11.8892 H       1  UNL1        0.0000
     16 N          15.1329   10.8538   13.2534 N.pl3   1  UNL1        0.0000
     17 C          17.9021   11.4835   11.9834 C.ar    1  UNL1        0.0000
     18 C          11.5561    8.5932   14.4554 C.2     1  UNL1        0.0000
     19 H          11.1251    8.9144   15.3887 H       1  UNL1        0.0000
     20 N          16.4450    9.7968   10.9145 N.pl3   1  UNL1        0.0000
     21 C          12.5208   13.0526   10.0582 C.2     1  UNL1        0.0000
     22 H          11.9858   13.8994    9.6581 H       1  UNL1        0.0000
     23 N          15.8282   10.6032   14.3248 N.2     1  UNL1        0.0000
     24 C          12.7121    9.1918   13.9920 C.2     1  UNL1        0.0000
     25 H          13.1780    9.9788   14.5683 H       1  UNL1        0.0000
     26 C          16.5558    6.3428   12.2667 C.ar    1  UNL1        0.0000
     27 C          12.6126   11.8676    9.3328 C.2     1  UNL1        0.0000
     28 H          12.1591   11.7716    8.3607 H       1  UNL1        0.0000
     29 N          16.0239    8.5517   13.2375 N.pl3   1  UNL1        0.0000
     30 C          17.5517   13.6294   12.9984 C.ar    1  UNL1        0.0000
     31 H          17.0829   14.6018   12.9876 H       1  UNL1        0.0000
     32 C          15.4216    5.5412   12.2232 C.ar    1  UNL1        0.0000
     33 H          14.6606    5.6512   12.9831 H       1  UNL1        0.0000
     34 C          13.4690    7.5138   10.9313 C.2     1  UNL1        0.0000
     35 H          13.1631    6.7516   10.2303 H       1  UNL1        0.0000
     36 C          17.5509    6.1867   11.3087 C.ar    1  UNL1        0.0000
     37 H          18.4376    6.8027   11.3558 H       1  UNL1        0.0000
     38 C          13.3019   10.8004    9.8763 C.2     1  UNL1        0.0000
     39 H          13.3824    9.8751    9.3232 H       1  UNL1        0.0000
     40 C          18.4104   13.2836   14.0280 C.ar    1  UNL1        0.0000
     41 H          18.6050   13.9833   14.8258 H       1  UNL1        0.0000
     42 C          16.3994    8.9170    9.9081 C.2     1  UNL1        0.0000
     43 C          17.3996    5.2523   10.3006 C.ar    1  UNL1        0.0000
     44 H          18.1699    5.1405    9.5534 H       1  UNL1        0.0000
     45 C          14.5149   11.9778   13.0226 C.2     1  UNL1        0.0000
     46 H          14.5549   12.8090   13.7108 H       1  UNL1        0.0000
     47 C          19.0271   12.0439   14.0298 C.ar    1  UNL1        0.0000
     48 H          19.7026   11.7751   14.8272 H       1  UNL1        0.0000
     49 C          18.4521   10.1805    9.9035 C.2     1  UNL1        0.0000
     50 H          19.4127   10.6019    9.6912 H       1  UNL1        0.0000
     51 C          16.2636    4.4620   10.2527 C.ar    1  UNL1        0.0000
     52 H          16.1477    3.7324    9.4665 H       1  UNL1        0.0000
     53 C          16.3298    9.3699   14.2504 C.2     1  UNL1        0.0000
     54 C          18.7803   11.1466   13.0070 C.ar    1  UNL1        0.0000
     55 H          19.2624   10.1794   12.9989 H       1  UNL1        0.0000
     56 C          17.6149   10.5036   10.9208 C.2     1  UNL1        0.0000
     57 C          15.2807    4.6013   11.2180 C.ar    1  UNL1        0.0000
     58 H          14.4019    3.9748   11.1909 H       1  UNL1        0.0000
     59 C          17.5156    7.2762   14.3972 C.2     1  UNL1        0.0000
     60 H          18.1357    6.4506   14.6785 H       1  UNL1        0.0000
     61 C          16.7053    7.3694   13.3134 C.2     1  UNL1        0.0000
     62 C          17.2932   12.7325   11.9773 C.ar    1  UNL1        0.0000
     63 H          16.6287   12.9987   11.1673 H       1  UNL1        0.0000
@<TRIPOS>BOND
     1    28    27    1
     2     4    49    1
     3     4    42    1
     4    39    38    1
     5    27    38    2
     6    27    21    1
     7    52    51    1
     8    44    43    1
     9    22    21    1
    10    50    49    1
    11    12    42    2
    12    12    13    1
    13    38     8    1
    14    49    56    2
    15    42    20    1
    16    21    14    2
    17    35    34    1
    18    51    43   ar
    19    51    57   ar
    20    43    36   ar
    21    13    34    1
    22    13     1    1
    23    20    56    1
    24    20     1    1
    25    56    17    1
    26    34     2    2
    27     8     7    1
    28     8     1    1
    29    63    62    1
    30    58    57    1
    31    57    32   ar
    32    14     7    1
    33    14    15    1
    34    36    37    1
    35    36    26   ar
    36     7    45    2
    37     6     5    1
    38    62    17   ar
    39    62    30   ar
    40    17    54   ar
    41     1     3    1
    42     1    29    1
    43     1    16    1
    44     2     5    1
    45     2     3    1
    46    32    26   ar
    47    32    33    1
    48    26    61    1
    49     5    10    2
    50     3    24    1
    51    31    30    1
    52    30    40   ar
    53    55    54    1
    54    54    47   ar
    55    45    16    1
    56    45    46    1
    57    29    61    1
    58    29    53    1
    59    16    23    1
    60    61    59    2
    61    10    11    1
    62    10    18    1
    63    24    18    2
    64    24    25    1
    65    40    47   ar
    66    40    41    1
    67    47    48    1
    68    53    23    2
    69    53     9    1
    70    59    60    1
    71    59     9    1
    72    18    19    1
