@<TRIPOS>MOLECULE
CSD_code = ZILRIX | q = 1 | S = 0 | Stoichiometry = C42H66CoN4O2(1+) | MND = 6
 115 122 0 0 0
SMALL
GASTEIGER

@<TRIPOS>ATOM
      1 CO          6.1701    1.8427    7.4597 Co.oh   1  UNL1        0.0000
      2 O           4.9099    3.1861    7.6605 O.3     1  UNL1        0.0000
      3 N           5.8614    1.0864    9.1578 N.3     1  UNL1        0.0000
      4 N           7.5183    0.3161    7.2111 N.4     1  UNL1        0.0000
      5 H           7.2301    3.5930    9.0838 H       1  UNL1        0.0000
      6 H           8.4691    2.6973    8.5076 H       1  UNL1        0.0000
      7 C           4.0278    3.3323    8.5968 C.ar    1  UNL1        0.0000
      8 C           4.0458    2.5581    9.7924 C.ar    1  UNL1        0.0000
      9 C           3.1123    2.7974   10.8243 C.ar    1  UNL1        0.0000
     10 H           3.1756    2.1749   11.7018 H       1  UNL1        0.0000
     11 C           2.1600    3.7722   10.7156 C.ar    1  UNL1        0.0000
     12 C           2.1375    4.5112    9.5190 C.ar    1  UNL1        0.0000
     13 H           1.3769    5.2656    9.4239 H       1  UNL1        0.0000
     14 C           3.0066    4.3285    8.4712 C.ar    1  UNL1        0.0000
     15 C           4.9634    1.4968    9.9895 C.3     1  UNL1        0.0000
     16 H           4.8701    0.9969   10.9505 H       1  UNL1        0.0000
     17 C           6.7542   -0.0192    9.4923 C.3     1  UNL1        0.0000
     18 H           7.6782    0.4134    9.9102 H       1  UNL1        0.0000
     19 C           7.0960   -0.7180    8.1709 C.3     1  UNL1        0.0000
     20 H           6.1726   -1.1565    7.7827 H       1  UNL1        0.0000
     21 C           8.1366   -1.8150    8.3713 C.3     1  UNL1        0.0000
     22 H           9.0608   -1.3832    8.7666 H       1  UNL1        0.0000
     23 H           8.3651   -2.2916    7.4156 H       1  UNL1        0.0000
     24 C           7.5960   -2.8491    9.3554 C.3     1  UNL1        0.0000
     25 H           6.7093   -3.3229    8.9310 H       1  UNL1        0.0000
     26 H           8.3428   -3.6249    9.5243 H       1  UNL1        0.0000
     27 C           7.2366   -2.1792   10.6766 C.3     1  UNL1        0.0000
     28 H           8.1405   -1.7699   11.1337 H       1  UNL1        0.0000
     29 H           6.8253   -2.9188   11.3635 H       1  UNL1        0.0000
     30 C           6.2162   -1.0576   10.4824 C.3     1  UNL1        0.0000
     31 H           5.2784   -1.4630   10.0985 H       1  UNL1        0.0000
     32 H           6.0248   -0.6015   11.4540 H       1  UNL1        0.0000
     33 C           1.1351    4.0784   11.7945 C.3     1  UNL1        0.0000
     34 C           1.2988    5.5374   12.2423 C.3     1  UNL1        0.0000
     35 H           2.3005    5.7020   12.6340 H       1  UNL1        0.0000
     36 H           0.5812    5.7685   13.0257 H       1  UNL1        0.0000
     37 H           1.1356    6.2286   11.4203 H       1  UNL1        0.0000
     38 C           1.2980    3.1789   13.0224 C.3     1  UNL1        0.0000
     39 H           1.1587    2.1323   12.7620 H       1  UNL1        0.0000
     40 H           0.5479    3.4413   13.7645 H       1  UNL1        0.0000
     41 H           2.2775    3.3091   13.4770 H       1  UNL1        0.0000
     42 C          -0.2737    3.8621   11.2248 C.3     1  UNL1        0.0000
     43 H          -0.3833    2.8397   10.8694 H       1  UNL1        0.0000
     44 H          -0.4782    4.5352   10.3971 H       1  UNL1        0.0000
     45 H          -1.0182    4.0406   11.9967 H       1  UNL1        0.0000
     46 C           2.8643    5.1331    7.1826 C.3     1  UNL1        0.0000
     47 C           2.4707    4.1623    6.0613 C.3     1  UNL1        0.0000
     48 H           1.5041    3.7112    6.2744 H       1  UNL1        0.0000
     49 H           3.2056    3.3704    5.9665 H       1  UNL1        0.0000
     50 H           2.4034    4.6891    5.1122 H       1  UNL1        0.0000
     51 C           4.1877    5.8241    6.8286 C.3     1  UNL1        0.0000
     52 H           4.5350    6.4294    7.6640 H       1  UNL1        0.0000
     53 H           4.0482    6.4731    5.9668 H       1  UNL1        0.0000
     54 H           4.9391    5.0810    6.5840 H       1  UNL1        0.0000
     55 C           1.7875    6.2199    7.2736 C.3     1  UNL1        0.0000
     56 H           2.0113    6.9340    8.0629 H       1  UNL1        0.0000
     57 H           0.8019    5.7927    7.4398 H       1  UNL1        0.0000
     58 H           1.7530    6.7630    6.3317 H       1  UNL1        0.0000
     59 O           4.8745    0.7341    6.7284 O.3     1  UNL1        0.0000
     60 N           6.6353    2.6041    5.7999 N.3     1  UNL1        0.0000
     61 N           7.5798    3.1257    8.2484 N.4     1  UNL1        0.0000
     62 H           7.4757   -0.0726    6.2697 H       1  UNL1        0.0000
     63 H           8.4978    0.5419    7.3883 H       1  UNL1        0.0000
     64 C           4.2038    0.9575    5.6413 C.ar    1  UNL1        0.0000
     65 C           4.7021    1.7936    4.6007 C.ar    1  UNL1        0.0000
     66 C           3.9805    1.9640    3.4009 C.ar    1  UNL1        0.0000
     67 H           4.4085    2.6125    2.6540 H       1  UNL1        0.0000
     68 C           2.7722    1.3538    3.2004 C.ar    1  UNL1        0.0000
     69 C           2.2881    0.5391    4.2385 C.ar    1  UNL1        0.0000
     70 H           1.3347    0.0649    4.0866 H       1  UNL1        0.0000
     71 C           2.9411    0.3200    5.4277 C.ar    1  UNL1        0.0000
     72 C           5.9097    2.5238    4.7373 C.3     1  UNL1        0.0000
     73 H           6.2171    3.0593    3.8427 H       1  UNL1        0.0000
     74 C           7.8509    3.4071    5.8495 C.3     1  UNL1        0.0000
     75 H           8.7062    2.7127    5.8428 H       1  UNL1        0.0000
     76 C           7.8309    4.1337    7.2034 C.3     1  UNL1        0.0000
     77 H           6.9776    4.8177    7.2008 H       1  UNL1        0.0000
     78 C           9.1182    4.9202    7.4332 C.3     1  UNL1        0.0000
     79 H           9.0728    5.4338    8.3959 H       1  UNL1        0.0000
     80 H           9.9713    4.2354    7.4524 H       1  UNL1        0.0000
     81 C           9.3080    5.9336    6.3079 C.3     1  UNL1        0.0000
     82 H           8.4876    6.6529    6.3259 H       1  UNL1        0.0000
     83 H          10.2381    6.4817    6.4580 H       1  UNL1        0.0000
     84 C           9.3360    5.2223    4.9601 C.3     1  UNL1        0.0000
     85 H          10.1952    4.5489    4.9211 H       1  UNL1        0.0000
     86 H           9.4531    5.9536    4.1605 H       1  UNL1        0.0000
     87 C           8.0533    4.4255    4.7239 C.3     1  UNL1        0.0000
     88 H           7.1986    5.1037    4.6924 H       1  UNL1        0.0000
     89 H           8.1340    3.9171    3.7621 H       1  UNL1        0.0000
     90 C           1.9372    1.5255    1.9431 C.3     1  UNL1        0.0000
     91 C           1.7223    0.1542    1.2882 C.3     1  UNL1        0.0000
     92 H           2.6794   -0.2969    1.0347 H       1  UNL1        0.0000
     93 H           1.1418    0.2650    0.3757 H       1  UNL1        0.0000
     94 H           1.1887   -0.5245    1.9474 H       1  UNL1        0.0000
     95 C           0.5836    2.1404    2.3255 C.3     1  UNL1        0.0000
     96 H          -0.0152    2.3057    1.4332 H       1  UNL1        0.0000
     97 H           0.7315    3.0957    2.8245 H       1  UNL1        0.0000
     98 H           0.0238    1.4909    2.9922 H       1  UNL1        0.0000
     99 C           2.6091    2.4450    0.9201 C.3     1  UNL1        0.0000
    100 H           3.5685    2.0434    0.6021 H       1  UNL1        0.0000
    101 H           2.7540    3.4433    1.3265 H       1  UNL1        0.0000
    102 H           1.9753    2.5313    0.0408 H       1  UNL1        0.0000
    103 C           2.3393   -0.5735    6.5069 C.3     1  UNL1        0.0000
    104 C           2.1497    0.2482    7.7889 C.3     1  UNL1        0.0000
    105 H           1.4863    1.0901    7.6036 H       1  UNL1        0.0000
    106 H           3.1001    0.6329    8.1419 H       1  UNL1        0.0000
    107 H           1.7126   -0.3704    8.5695 H       1  UNL1        0.0000
    108 C           3.2863   -1.7506    6.7730 C.3     1  UNL1        0.0000
    109 H           4.2486   -1.3822    7.1121 H       1  UNL1        0.0000
    110 H           3.4321   -2.3320    5.8649 H       1  UNL1        0.0000
    111 H           2.8699   -2.4016    7.5385 H       1  UNL1        0.0000
    112 C           0.9765   -1.1523    6.1135 C.3     1  UNL1        0.0000
    113 H           0.2470   -0.3650    5.9402 H       1  UNL1        0.0000
    114 H           0.6075   -1.7714    6.9283 H       1  UNL1        0.0000
    115 H           1.0508   -1.7800    5.2287 H       1  UNL1        0.0000
@<TRIPOS>BOND
     1   102    99    1
     2    93    91    1
     3   100    99    1
     4    99   101    1
     5    99    90    1
     6    92    91    1
     7    91    90    1
     8    91    94    1
     9    96    95    1
    10    90    95    1
    11    90    68    1
    12    95    97    1
    13    95    98    1
    14    67    66    1
    15    68    66   ar
    16    68    69   ar
    17    66    65   ar
    18    89    87    1
    19    73    72    1
    20    70    69    1
    21    86    84    1
    22    69    71   ar
    23    65    72    1
    24    65    64   ar
    25    88    87    1
    26    87    84    1
    27    87    74    1
    28    72    60    1
    29    85    84    1
    30    84    81    1
    31    50    47    1
    32   115   112    1
    33    71    64   ar
    34    71   103    1
    35    64    59    1
    36    60    74    1
    37    60     1    1
    38    75    74    1
    39    74    76    1
    40   110   108    1
    41   113   112    1
    42    49    47    1
    43    53    51    1
    44    47    48    1
    45    47    46    1
    46   112   103    1
    47   112   114    1
    48    62     4    1
    49    81    82    1
    50    81    83    1
    51    81    78    1
    52    58    55    1
    53   103   108    1
    54   103   104    1
    55    54    51    1
    56    59     1    1
    57   108   109    1
    58   108   111    1
    59    51    46    1
    60    51    52    1
    61    46    55    1
    62    46    14    1
    63    77    76    1
    64    76    78    1
    65    76    61    1
    66     4    63    1
    67     4     1    1
    68     4    19    1
    69    55    57    1
    70    55    56    1
    71    23    21    1
    72    78    80    1
    73    78    79    1
    74     1     2    1
    75     1    61    1
    76     1     3    1
    77   105   104    1
    78     2     7    1
    79    20    19    1
    80   104   106    1
    81   104   107    1
    82    19    21    1
    83    19    17    1
    84    61     6    1
    85    61     5    1
    86    21    22    1
    87    21    24    1
    88    14     7   ar
    89    14    12   ar
    90     7     8   ar
    91    25    24    1
    92     3    17    1
    93     3    15    1
    94    24    26    1
    95    24    27    1
    96    13    12    1
    97    17    18    1
    98    17    30    1
    99    12    11   ar
   100     8    15    1
   101     8     9   ar
   102    15    16    1
   103    31    30    1
   104    44    42    1
   105    30    27    1
   106    30    32    1
   107    27    28    1
   108    27    29    1
   109    11     9   ar
   110    11    33    1
   111     9    10    1
   112    43    42    1
   113    42    33    1
   114    42    45    1
   115    37    34    1
   116    33    34    1
   117    33    38    1
   118    34    35    1
   119    34    36    1
   120    39    38    1
   121    38    41    1
   122    38    40    1
