@<TRIPOS>MOLECULE
CSD_code = AFEFIB | q = 1 | S = 0 | Stoichiometry = C32H42Br4CoN4O2(1+) | MND = 6
 85 92 0 0 0
SMALL
GASTEIGER

@<TRIPOS>ATOM
      1 CO         -1.3986    0.0000    8.9210 Co.oh   1  UNL1        0.0000
      2 BR          5.5605    0.5043    6.5439 Br      1  UNL1        0.0000
      3 BR          0.2670    1.7646    4.8538 Br      1  UNL1        0.0000
      4 O          -0.3572    0.7513    7.5481 O.3     1  UNL1        0.0000
      5 N           0.1154    0.0808   10.1063 N.3     1  UNL1        0.0000
      6 N          -1.9359    1.8583    9.5887 N.4     1  UNL1        0.0000
      7 H          -2.8554    1.6328    9.9783 H       1  UNL1        0.0000
      8 C           1.8296    0.3114    8.4102 C.ar    1  UNL1        0.0000
      9 C           0.9162    0.7152    7.3975 C.ar    1  UNL1        0.0000
     10 C           1.4850    1.1267    6.1631 C.ar    1  UNL1        0.0000
     11 C           2.8293    1.0693    5.9086 C.ar    1  UNL1        0.0000
     12 H           3.2206    1.3768    4.9512 H       1  UNL1        0.0000
     13 C           3.6938    0.6087    6.9078 C.ar    1  UNL1        0.0000
     14 C           3.2082    0.2575    8.1437 C.ar    1  UNL1        0.0000
     15 H           3.8854   -0.0607    8.9212 H       1  UNL1        0.0000
     16 C           1.3482    0.1254    9.7387 C.3     1  UNL1        0.0000
     17 H           2.1236    0.0959   10.5057 H       1  UNL1        0.0000
     18 C          -0.1542    0.1539   11.5265 C.3     1  UNL1        0.0000
     19 H           0.7883    0.2428   12.0753 H       1  UNL1        0.0000
     20 H          -0.6505   -0.7643   11.8455 H       1  UNL1        0.0000
     21 C          -1.0667    1.3527   11.8620 C.3     1  UNL1        0.0000
     22 H          -0.6752    1.8522   12.7475 H       1  UNL1        0.0000
     23 H          -2.0682    0.9994   12.1052 H       1  UNL1        0.0000
     24 C          -1.1521    2.3697   10.7288 C.3     1  UNL1        0.0000
     25 H          -1.6289    3.2785   11.1121 H       1  UNL1        0.0000
     26 H          -0.1491    2.6264   10.3843 H       1  UNL1        0.0000
     27 C          -2.2126    2.8969    8.5539 C.3     1  UNL1        0.0000
     28 H          -2.4636    2.3626    7.6337 H       1  UNL1        0.0000
     29 C          -3.4250    3.7479    8.9422 C.3     1  UNL1        0.0000
     30 H          -3.1964    4.3569    9.8191 H       1  UNL1        0.0000
     31 H          -4.2754    3.1034    9.1863 H       1  UNL1        0.0000
     32 C          -3.7971    4.6673    7.7794 C.3     1  UNL1        0.0000
     33 H          -4.0903    4.0615    6.9193 H       1  UNL1        0.0000
     34 H          -4.6513    5.2837    8.0612 H       1  UNL1        0.0000
     35 C          -2.6170    5.5544    7.3964 C.3     1  UNL1        0.0000
     36 H          -2.8860    6.1732    6.5407 H       1  UNL1        0.0000
     37 H          -2.3783    6.2212    8.2274 H       1  UNL1        0.0000
     38 C          -1.3951    4.7069    7.0571 C.3     1  UNL1        0.0000
     39 H          -0.5504    5.3541    6.8204 H       1  UNL1        0.0000
     40 H          -1.6020    4.0946    6.1776 H       1  UNL1        0.0000
     41 C          -1.0282    3.8057    8.2363 C.3     1  UNL1        0.0000
     42 H          -0.1537    3.2066    7.9844 H       1  UNL1        0.0000
     43 H          -0.7849    4.4373    9.0916 H       1  UNL1        0.0000
     44 BR         -8.3576   -0.5043   11.2981 Br      1  UNL1        0.0000
     45 BR         -3.0642   -1.7645   12.9883 Br      1  UNL1        0.0000
     46 O          -2.4399   -0.7512   10.2940 O.3     1  UNL1        0.0000
     47 N          -2.9125   -0.0809    7.7357 N.3     1  UNL1        0.0000
     48 N          -0.8612   -1.8583    8.2534 N.4     1  UNL1        0.0000
     49 H           0.0583   -1.6328    7.8638 H       1  UNL1        0.0000
     50 C          -4.6267   -0.3114    9.4319 C.ar    1  UNL1        0.0000
     51 C          -3.7133   -0.7152   10.4446 C.ar    1  UNL1        0.0000
     52 C          -4.2822   -1.1267   11.6789 C.ar    1  UNL1        0.0000
     53 C          -5.6265   -1.0692   11.9334 C.ar    1  UNL1        0.0000
     54 H          -6.0178   -1.3767   12.8908 H       1  UNL1        0.0000
     55 C          -6.4909   -0.6087   10.9342 C.ar    1  UNL1        0.0000
     56 C          -6.0053   -0.2575    9.6983 C.ar    1  UNL1        0.0000
     57 H          -6.6825    0.0606    8.9208 H       1  UNL1        0.0000
     58 C          -4.1453   -0.1254    8.1034 C.3     1  UNL1        0.0000
     59 H          -4.9207   -0.0960    7.3363 H       1  UNL1        0.0000
     60 C          -2.6428   -0.1539    6.3155 C.3     1  UNL1        0.0000
     61 H          -3.5854   -0.2429    5.7668 H       1  UNL1        0.0000
     62 H          -2.1466    0.7643    5.9966 H       1  UNL1        0.0000
     63 C          -1.7303   -1.3526    5.9801 C.3     1  UNL1        0.0000
     64 H          -2.1217   -1.8521    5.0945 H       1  UNL1        0.0000
     65 H          -0.7288   -0.9993    5.7369 H       1  UNL1        0.0000
     66 C          -1.6450   -2.3696    7.1132 C.3     1  UNL1        0.0000
     67 H          -1.1681   -3.2784    6.7299 H       1  UNL1        0.0000
     68 H          -2.6480   -2.6264    7.4577 H       1  UNL1        0.0000
     69 C          -0.5846   -2.8969    9.2882 C.3     1  UNL1        0.0000
     70 H          -0.3337   -2.3626   10.2084 H       1  UNL1        0.0000
     71 C           0.6278   -3.7479    8.9000 C.3     1  UNL1        0.0000
     72 H           0.3992   -4.3570    8.0230 H       1  UNL1        0.0000
     73 H           1.4782   -3.1035    8.6560 H       1  UNL1        0.0000
     74 C           0.9997   -4.6674   10.0628 C.3     1  UNL1        0.0000
     75 H           1.2929   -4.0616   10.9229 H       1  UNL1        0.0000
     76 H           1.8539   -5.2838    9.7810 H       1  UNL1        0.0000
     77 C          -0.1805   -5.5544   10.4457 C.3     1  UNL1        0.0000
     78 H           0.0885   -6.1732   11.3015 H       1  UNL1        0.0000
     79 H          -0.4191   -6.2212    9.6147 H       1  UNL1        0.0000
     80 C          -1.4023   -4.7069   10.7849 C.3     1  UNL1        0.0000
     81 H          -2.2470   -5.3540   11.0216 H       1  UNL1        0.0000
     82 H          -1.1954   -4.0945   11.6644 H       1  UNL1        0.0000
     83 C          -1.7691   -3.8056    9.6057 C.3     1  UNL1        0.0000
     84 H          -2.6436   -3.2066    9.8575 H       1  UNL1        0.0000
     85 H          -2.0124   -4.4373    8.7504 H       1  UNL1        0.0000
@<TRIPOS>BOND
     1     3    10    1
     2    12    11    1
     3    64    63    1
     4    65    63    1
     5    61    60    1
     6    11    10   ar
     7    11    13   ar
     8    63    60    1
     9    63    66    1
    10    62    60    1
    11    10     9   ar
    12    40    38    1
    13    60    47    1
    14    36    35    1
    15     2    13    1
    16    67    66    1
    17    39    38    1
    18    13    14   ar
    19    33    32    1
    20    38    35    1
    21    38    41    1
    22    66    68    1
    23    66    48    1
    24    59    58    1
    25    35    32    1
    26    35    37    1
    27     9     4    1
    28     9     8   ar
    29     4     1    1
    30    28    27    1
    31    47    58    1
    32    47     1    1
    33    32    34    1
    34    32    29    1
    35    49    48    1
    36    42    41    1
    37    72    71    1
    38    58    50    1
    39    14     8   ar
    40    14    15    1
    41    41    27    1
    42    41    43    1
    43    48     1    1
    44    48    69    1
    45     8    16    1
    46    27    29    1
    47    27     6    1
    48    73    71    1
    49    85    83    1
    50    71    69    1
    51    71    74    1
    52    57    56    1
    53     1     6    1
    54     1     5    1
    55     1    46    1
    56    29    31    1
    57    29    30    1
    58    69    83    1
    59    69    70    1
    60    50    56   ar
    61    50    51   ar
    62     6     7    1
    63     6    24    1
    64    83    84    1
    65    83    80    1
    66    79    77    1
    67    56    55   ar
    68    16     5    1
    69    16    17    1
    70    76    74    1
    71    74    77    1
    72    74    75    1
    73     5    18    1
    74    46    51    1
    75    26    24    1
    76    51    52   ar
    77    77    80    1
    78    77    78    1
    79    24    25    1
    80    24    21    1
    81    80    81    1
    82    80    82    1
    83    55    44    1
    84    55    53   ar
    85    18    20    1
    86    18    21    1
    87    18    19    1
    88    52    53   ar
    89    52    45    1
    90    21    23    1
    91    21    22    1
    92    53    54    1
