@<TRIPOS>MOLECULE
CSD_code = AGEFAT | q = 1 | S = 0 | Stoichiometry = C24H16CoN6O4(1+) | MND = 6
 51 58 0 0 0
SMALL
GASTEIGER

@<TRIPOS>ATOM
      1 CO          1.0454    5.0196    9.4722 Co.oh   1  UNL1        0.0000
      2 O           0.3620    7.4726   12.4737 O.2     1  UNL1        0.0000
      3 O           1.5184    4.9965   13.3797 O.2     1  UNL1        0.0000
      4 O           2.4570    4.3855    5.8531 O.2     1  UNL1        0.0000
      5 O          -0.1538    3.2184    6.1843 O.2     1  UNL1        0.0000
      6 N           0.2664    6.6848    9.0250 N.pl3   1  UNL1        0.0000
      7 N           0.9925    5.6323   11.2138 N.am    1  UNL1        0.0000
      8 N           1.8155    3.4560   10.2076 N.pl3   1  UNL1        0.0000
      9 N           2.7663    5.7203    9.1159 N.pl3   1  UNL1        0.0000
     10 N           1.0982    4.4073    7.7305 N.am    1  UNL1        0.0000
     11 N          -0.6664    4.2170    9.5405 N.pl3   1  UNL1        0.0000
     12 C          -0.0884    7.1615    7.8322 C.3     1  UNL1        0.0000
     13 H           0.0735    6.5272    6.9719 H       1  UNL1        0.0000
     14 C          -0.6457    8.4195    7.6708 C.2     1  UNL1        0.0000
     15 H          -0.9141    8.7558    6.6822 H       1  UNL1        0.0000
     16 C          -0.8479    9.2235    8.7831 C.2     1  UNL1        0.0000
     17 H          -1.2793   10.2072    8.6843 H       1  UNL1        0.0000
     18 C          -0.4808    8.7285   10.0233 C.2     1  UNL1        0.0000
     19 H          -0.6052    9.2895   10.9372 H       1  UNL1        0.0000
     20 C           0.0713    7.4587   10.1034 C.2     1  UNL1        0.0000
     21 C           0.4842    6.8817   11.4321 C.2     1  UNL1        0.0000
     22 C           1.4642    4.8040   12.1926 C.2     1  UNL1        0.0000
     23 C           1.9377    3.5308   11.5415 C.3     1  UNL1        0.0000
     24 C           2.4695    2.5009   12.3032 C.2     1  UNL1        0.0000
     25 H           2.5339    2.6375   13.3721 H       1  UNL1        0.0000
     26 C           2.8933    1.3460   11.6674 C.2     1  UNL1        0.0000
     27 H           3.3109    0.5252   12.2291 H       1  UNL1        0.0000
     28 C           2.7661    1.2731   10.2879 C.2     1  UNL1        0.0000
     29 H           3.0807    0.3975    9.7433 H       1  UNL1        0.0000
     30 C           2.2247    2.3447    9.5965 C.2     1  UNL1        0.0000
     31 H           2.1213    2.2980    8.5214 H       1  UNL1        0.0000
     32 C           3.5839    6.4065    9.9138 C.3     1  UNL1        0.0000
     33 H           3.2482    6.6054   10.9220 H       1  UNL1        0.0000
     34 C           4.8233    6.8610    9.4935 C.2     1  UNL1        0.0000
     35 H           5.4449    7.4120   10.1807 H       1  UNL1        0.0000
     36 C           5.2416    6.5994    8.1970 C.2     1  UNL1        0.0000
     37 H           6.2016    6.9431    7.8449 H       1  UNL1        0.0000
     38 C           4.3934    5.8852    7.3675 C.2     1  UNL1        0.0000
     39 H           4.6437    5.6393    6.3466 H       1  UNL1        0.0000
     40 C           3.1679    5.4638    7.8618 C.2     1  UNL1        0.0000
     41 C           2.2156    4.6832    6.9942 C.2     1  UNL1        0.0000
     42 C           0.0183    3.7081    7.2704 C.2     1  UNL1        0.0000
     43 C          -0.9953    3.6261    8.3818 C.3     1  UNL1        0.0000
     44 C          -2.2008    2.9665    8.1938 C.2     1  UNL1        0.0000
     45 H          -2.3914    2.5160    7.2315 H       1  UNL1        0.0000
     46 C          -3.1056    2.9113    9.2407 C.2     1  UNL1        0.0000
     47 H          -4.0521    2.4059    9.1294 H       1  UNL1        0.0000
     48 C          -2.7616    3.5235   10.4371 C.2     1  UNL1        0.0000
     49 H          -3.4291    3.5102   11.2836 H       1  UNL1        0.0000
     50 C          -1.5381    4.1639   10.5470 C.2     1  UNL1        0.0000
     51 H          -1.2604    4.6443   11.4749 H       1  UNL1        0.0000
@<TRIPOS>BOND
     1     4    41    2
     2     5    42    2
     3    39    38    1
     4    15    14    1
     5    13    12    1
     6    41    10   am
     7    41    40    1
     8    45    44    1
     9    42    10   am
    10    42    43    1
    11    38    40    2
    12    38    36    1
    13    14    12    1
    14    14    16    2
    15    10     1    1
    16    12     6    1
    17    37    36    1
    18    40     9    1
    19    44    43    1
    20    44    46    2
    21    36    34    2
    22    43    11    1
    23    31    30    1
    24    17    16    1
    25    16    18    1
    26     6     1    1
    27     6    20    1
    28     9     1    1
    29     9    32    1
    30    47    46    1
    31    46    48    1
    32     1    11    1
    33     1     8    1
    34     1     7    1
    35    34    32    1
    36    34    35    1
    37    11    50    1
    38    30     8    1
    39    30    28    2
    40    29    28    1
    41    32    33    1
    42    18    20    2
    43    18    19    1
    44    20    21    1
    45     8    23    1
    46    28    26    1
    47    48    50    2
    48    48    49    1
    49    50    51    1
    50     7    21   am
    51     7    22   am
    52    21     2    2
    53    23    22    1
    54    23    24    1
    55    26    27    1
    56    26    24    2
    57    22     3    2
    58    24    25    1
