@<TRIPOS>MOLECULE
CSD_code = AKOBAD | q = 1 | S = 0 | Stoichiometry = C22H30CoN4O4(1+) | MND = 6
 61 66 0 0 0
SMALL
GASTEIGER

@<TRIPOS>ATOM
      1 CO          3.9919    4.1682    6.3385 Co.oh   1  UNL1        0.0000
      2 N           2.6404    3.0735    5.6273 N.3     1  UNL1        0.0000
      3 N           3.7925    3.0189    8.0424 N.4     1  UNL1        0.0000
      4 H           4.4992    2.2778    8.0066 H       1  UNL1        0.0000
      5 N           5.3602    5.2218    7.0673 N.3     1  UNL1        0.0000
      6 N           5.5420    2.9904    5.5671 N.4     1  UNL1        0.0000
      7 H           5.7227    2.2142    6.2085 H       1  UNL1        0.0000
      8 O           4.1153    5.2147    4.8168 O.3     1  UNL1        0.0000
      9 O           5.4512    1.8126    9.8179 O.3     1  UNL1        0.0000
     10 H           5.8343    1.2315   10.4821 H       1  UNL1        0.0000
     11 O           2.6444    5.2598    6.9863 O.3     1  UNL1        0.0000
     12 O           7.7397    1.9338    3.6827 O.3     1  UNL1        0.0000
     13 H           7.7778    2.3768    2.8284 H       1  UNL1        0.0000
     14 C           3.2008    5.3508    3.9146 C.ar    1  UNL1        0.0000
     15 C           2.0917    4.4698    3.7496 C.ar    1  UNL1        0.0000
     16 C           1.1748    4.6955    2.7027 C.ar    1  UNL1        0.0000
     17 H           0.3375    4.0208    2.5982 H       1  UNL1        0.0000
     18 C           1.3289    5.7419    1.8346 C.ar    1  UNL1        0.0000
     19 H           0.6199    5.9050    1.0392 H       1  UNL1        0.0000
     20 C           2.4175    6.6072    1.9900 C.ar    1  UNL1        0.0000
     21 H           2.5392    7.4371    1.3104 H       1  UNL1        0.0000
     22 C           3.3268    6.4207    2.9972 C.ar    1  UNL1        0.0000
     23 H           4.1656    7.0875    3.1242 H       1  UNL1        0.0000
     24 C           1.8868    3.3759    4.6258 C.3     1  UNL1        0.0000
     25 H           1.0263    2.7409    4.4084 H       1  UNL1        0.0000
     26 C           2.3124    1.9379    6.4613 C.3     1  UNL1        0.0000
     27 H           3.0056    1.1146    6.2427 H       1  UNL1        0.0000
     28 H           1.2919    1.5848    6.2785 H       1  UNL1        0.0000
     29 C           2.4765    2.3788    7.9119 C.3     1  UNL1        0.0000
     30 H           1.7177    3.1304    8.1399 H       1  UNL1        0.0000
     31 H           2.3608    1.5264    8.5886 H       1  UNL1        0.0000
     32 C           3.9897    3.6191    9.3697 C.3     1  UNL1        0.0000
     33 H           3.0855    4.1415    9.6808 H       1  UNL1        0.0000
     34 H           4.8021    4.3442    9.3080 H       1  UNL1        0.0000
     35 C           4.3833    2.5477   10.3923 C.3     1  UNL1        0.0000
     36 H           4.6913    3.0327   11.3239 H       1  UNL1        0.0000
     37 H           3.5395    1.8806   10.6117 H       1  UNL1        0.0000
     38 C           2.7716    6.5094    7.2915 C.ar    1  UNL1        0.0000
     39 C           4.0168    7.1556    7.5437 C.ar    1  UNL1        0.0000
     40 C           4.0323    8.5160    7.9106 C.ar    1  UNL1        0.0000
     41 H           4.9864    8.9893    8.0921 H       1  UNL1        0.0000
     42 C           2.8730    9.2330    8.0337 C.ar    1  UNL1        0.0000
     43 H           2.8978   10.2740    8.3124 H       1  UNL1        0.0000
     44 C           1.6481    8.6028    7.7904 C.ar    1  UNL1        0.0000
     45 H           0.7317    9.1662    7.8819 H       1  UNL1        0.0000
     46 C           1.5951    7.2823    7.4294 C.ar    1  UNL1        0.0000
     47 H           0.6531    6.7922    7.2378 H       1  UNL1        0.0000
     48 C           5.2427    6.4536    7.4256 C.3     1  UNL1        0.0000
     49 H           6.1443    7.0129    7.6804 H       1  UNL1        0.0000
     50 C           6.6678    4.6110    6.9714 C.3     1  UNL1        0.0000
     51 H           6.7968    3.8986    7.7967 H       1  UNL1        0.0000
     52 H           7.4669    5.3572    7.0298 H       1  UNL1        0.0000
     53 C           6.7194    3.8729    5.6396 C.3     1  UNL1        0.0000
     54 H           6.6363    4.6016    4.8307 H       1  UNL1        0.0000
     55 H           7.6526    3.3140    5.5301 H       1  UNL1        0.0000
     56 C           5.3784    2.3974    4.2322 C.3     1  UNL1        0.0000
     57 H           5.3688    3.2074    3.4998 H       1  UNL1        0.0000
     58 H           4.4131    1.8899    4.1881 H       1  UNL1        0.0000
     59 C           6.4698    1.3708    3.8784 C.3     1  UNL1        0.0000
     60 H           6.5883    0.6592    4.7023 H       1  UNL1        0.0000
     61 H           6.1456    0.8112    2.9930 H       1  UNL1        0.0000
@<TRIPOS>BOND
     1    19    18    1
     2    21    20    1
     3    18    20   ar
     4    18    16   ar
     5    20    22   ar
     6    17    16    1
     7    16    15   ar
     8    13    12    1
     9    61    59    1
    10    22    23    1
    11    22    14   ar
    12    57    56    1
    13    12    59    1
    14    15    14   ar
    15    15    24    1
    16    59    56    1
    17    59    60    1
    18    14     8    1
    19    58    56    1
    20    56     6    1
    21    25    24    1
    22    24     2    1
    23     8     1    1
    24    54    53    1
    25    55    53    1
    26     6    53    1
    27     6     7    1
    28     6     1    1
    29     2     1    1
    30     2    26    1
    31    53    50    1
    32    27    26    1
    33    28    26    1
    34     1    11    1
    35     1     5    1
    36     1     3    1
    37    26    29    1
    38    50    52    1
    39    50     5    1
    40    50    51    1
    41    11    38    1
    42     5    48    1
    43    47    46    1
    44    38    46   ar
    45    38    39   ar
    46    48    39    1
    47    48    49    1
    48    46    44   ar
    49    39    40   ar
    50    44    45    1
    51    44    42   ar
    52    40    42   ar
    53    40    41    1
    54    29     3    1
    55    29    30    1
    56    29    31    1
    57     4     3    1
    58    42    43    1
    59     3    32    1
    60    34    32    1
    61    32    33    1
    62    32    35    1
    63     9    35    1
    64     9    10    1
    65    35    37    1
    66    35    36    1
