@<TRIPOS>MOLECULE
CSD_code = ALOFIR | q = 0 | S = 0 | Stoichiometry = C32H34CoN3 | MND = 4
 70 75 0 0 0
SMALL
GASTEIGER

@<TRIPOS>ATOM
      1 CO          4.9551    8.4933   11.3963 Co.oh   1  UNL1        0.0000
      2 N           4.2536    9.4233   10.0615 N.pl3   1  UNL1        0.0000
      3 N           3.9073    7.1155   10.6790 N.pl3   1  UNL1        0.0000
      4 N           5.8330   10.1039   11.7585 N.pl3   1  UNL1        0.0000
      5 C           6.2117    7.3411   12.2590 C.ar    1  UNL1        0.0000
      6 C           6.1425    7.2449   13.6514 C.ar    1  UNL1        0.0000
      7 H           5.4600    7.8724   14.2149 H       1  UNL1        0.0000
      8 C           7.1444    6.5207   11.6278 C.ar    1  UNL1        0.0000
      9 H           7.2611    6.5610   10.5508 H       1  UNL1        0.0000
     10 C           6.9375    6.3643   14.3614 C.ar    1  UNL1        0.0000
     11 H           6.8504    6.3162   15.4395 H       1  UNL1        0.0000
     12 C           7.8506    5.5436   13.7139 C.ar    1  UNL1        0.0000
     13 C           7.9466    5.6405   12.3356 C.ar    1  UNL1        0.0000
     14 H           8.6570    5.0196   11.8036 H       1  UNL1        0.0000
     15 C           8.7083    4.5929   14.4974 C.3     1  UNL1        0.0000
     16 H           9.3292    3.9934   13.8354 H       1  UNL1        0.0000
     17 H           8.0887    3.9233   15.0935 H       1  UNL1        0.0000
     18 H           9.3588    5.1404   15.1799 H       1  UNL1        0.0000
     19 C           3.5454    8.7508    9.1149 C.2     1  UNL1        0.0000
     20 C           3.2301    9.3583    7.9041 C.2     1  UNL1        0.0000
     21 H           2.6504    8.8305    7.1632 H       1  UNL1        0.0000
     22 C           3.6922   10.6456    7.6581 C.2     1  UNL1        0.0000
     23 H           3.4505   11.1350    6.7268 H       1  UNL1        0.0000
     24 C           4.5009   11.2873    8.5880 C.2     1  UNL1        0.0000
     25 H           4.9112   12.2631    8.3804 H       1  UNL1        0.0000
     26 C           4.7888   10.6432    9.7868 C.2     1  UNL1        0.0000
     27 C           5.6397   11.0486   10.8682 C.3     1  UNL1        0.0000
     28 C           3.2681    7.4193    9.5741 C.2     1  UNL1        0.0000
     29 C           2.3098    6.5155    8.8664 C.3     1  UNL1        0.0000
     30 H           2.0810    5.6453    9.4772 H       1  UNL1        0.0000
     31 H           2.7333    6.1779    7.9204 H       1  UNL1        0.0000
     32 H           1.3877    7.0522    8.6469 H       1  UNL1        0.0000
     33 C           6.2166   12.4262   10.9533 C.3     1  UNL1        0.0000
     34 H           5.4205   13.1686   10.9038 H       1  UNL1        0.0000
     35 H           6.8893   12.6049   10.1143 H       1  UNL1        0.0000
     36 H           6.7685   12.5576   11.8810 H       1  UNL1        0.0000
     37 C           6.5886   10.3543   12.9209 C.ar    1  UNL1        0.0000
     38 C           7.9780   10.1895   12.9086 C.ar    1  UNL1        0.0000
     39 C           8.6813   10.3751   14.0881 C.ar    1  UNL1        0.0000
     40 H           9.7534   10.2420   14.0882 H       1  UNL1        0.0000
     41 C           8.0303   10.7222   15.2580 C.ar    1  UNL1        0.0000
     42 H           8.5926   10.8606   16.1694 H       1  UNL1        0.0000
     43 C           6.6576   10.8881   15.2595 C.ar    1  UNL1        0.0000
     44 H           6.1467   11.1580   16.1728 H       1  UNL1        0.0000
     45 C           5.9220   10.7087   14.0986 C.ar    1  UNL1        0.0000
     46 C           4.4340   10.8921   14.0849 C.3     1  UNL1        0.0000
     47 H           4.1724   11.8627   13.6609 H       1  UNL1        0.0000
     48 H           4.0273   10.8362   15.0916 H       1  UNL1        0.0000
     49 H           3.9653   10.1245   13.4637 H       1  UNL1        0.0000
     50 C           3.7687    5.8634   11.3003 C.ar    1  UNL1        0.0000
     51 C           4.3282    4.7059   10.7495 C.ar    1  UNL1        0.0000
     52 C           4.2260    3.5155   11.4560 C.ar    1  UNL1        0.0000
     53 H           4.6637    2.6209   11.0368 H       1  UNL1        0.0000
     54 C           3.5856    3.4608   12.6785 C.ar    1  UNL1        0.0000
     55 H           3.5188    2.5255   13.2139 H       1  UNL1        0.0000
     56 C           3.0408    4.6118   13.2203 C.ar    1  UNL1        0.0000
     57 H           2.5474    4.5759   14.1808 H       1  UNL1        0.0000
     58 C           3.1262    5.8164   12.5456 C.ar    1  UNL1        0.0000
     59 C           2.5498    7.0753   13.1150 C.3     1  UNL1        0.0000
     60 H           3.2669    7.8974   12.9721 H       1  UNL1        0.0000
     61 H           2.3390    6.9628   14.1753 H       1  UNL1        0.0000
     62 H           1.6272    7.3473   12.6003 H       1  UNL1        0.0000
     63 C           5.0503    4.7256    9.4348 C.3     1  UNL1        0.0000
     64 H           5.9456    4.1108    9.4964 H       1  UNL1        0.0000
     65 H           5.3391    5.7368    9.1610 H       1  UNL1        0.0000
     66 H           4.4184    4.3181    8.6443 H       1  UNL1        0.0000
     67 C           8.6745    9.8111   11.6392 C.3     1  UNL1        0.0000
     68 H           8.1637    8.9656   11.1798 H       1  UNL1        0.0000
     69 H           9.7077    9.5382   11.8359 H       1  UNL1        0.0000
     70 H           8.6627   10.6381   10.9288 H       1  UNL1        0.0000
@<TRIPOS>BOND
     1    23    22    1
     2    21    20    1
     3    22    20    2
     4    22    24    1
     5    20    19    1
     6    31    29    1
     7    25    24    1
     8    24    26    2
     9    66    63    1
    10    32    29    1
    11    29    30    1
    12    29    28    1
    13    19    28    2
    14    19     2    1
    15    65    63    1
    16    63    64    1
    17    63    51    1
    18    28     3    1
    19    26     2    1
    20    26    27    1
    21     2     1    1
    22    35    33    1
    23     9     8    1
    24     3    50    1
    25     3     1    1
    26    51    50   ar
    27    51    52   ar
    28    27    33    1
    29    27     4    1
    30    34    33    1
    31    70    67    1
    32    33    36    1
    33    53    52    1
    34    68    67    1
    35    50    58   ar
    36     1     4    1
    37     1     5    1
    38    52    54   ar
    39     8     5   ar
    40     8    13   ar
    41    67    69    1
    42    67    38    1
    43     4    37    1
    44    14    13    1
    45     5     6   ar
    46    13    12   ar
    47    58    59    1
    48    58    56   ar
    49    62    59    1
    50    54    55    1
    51    54    56   ar
    52    38    37   ar
    53    38    39   ar
    54    37    45   ar
    55    60    59    1
    56    59    61    1
    57    56    57    1
    58    49    46    1
    59     6     7    1
    60     6    10   ar
    61    47    46    1
    62    12    10   ar
    63    12    15    1
    64    16    15    1
    65    46    45    1
    66    46    48    1
    67    39    40    1
    68    39    41   ar
    69    45    43   ar
    70    10    11    1
    71    15    17    1
    72    15    18    1
    73    41    43   ar
    74    41    42    1
    75    43    44    1
