@<TRIPOS>MOLECULE
CSD_code = APRCOB | q = 1 | S = 0 | Stoichiometry = C6H14CoN4O4(1+) | MND = 6
 29 32 0 0 0
SMALL
GASTEIGER

@<TRIPOS>ATOM
      1 CO          5.8800    3.7450    0.7437 Co.oh   1  UNL1        0.0000
      2 C           3.7457    2.7638   -0.4955 C.2     1  UNL1        0.0000
      3 C           4.2197    1.7246    0.5826 C.3     1  UNL1        0.0000
      4 C           3.7612    2.2579    1.9406 C.3     1  UNL1        0.0000
      5 H           6.0927    1.1624    1.2558 H       1  UNL1        0.0000
      6 H           6.0531    1.5644   -0.3368 H       1  UNL1        0.0000
      7 H           3.6383    4.2841    1.7281 H       1  UNL1        0.0000
      8 H           4.4594    3.8407    3.0625 H       1  UNL1        0.0000
      9 H           3.8384    0.7212    0.3752 H       1  UNL1        0.0000
     10 H           2.6701    2.2641    1.9976 H       1  UNL1        0.0000
     11 H           4.1521    1.6249    2.7424 H       1  UNL1        0.0000
     12 N           5.6885    1.8217    0.5866 N.4     1  UNL1        0.0000
     13 N           4.3339    3.6211    2.0755 N.4     1  UNL1        0.0000
     14 O           4.5342    3.7830   -0.5122 O.3     1  UNL1        0.0000
     15 O           2.7492    2.6135   -1.1397 O.2     1  UNL1        0.0000
     16 N           6.0715    5.6683    0.5866 N.4     1  UNL1        0.0000
     17 N           7.4261    3.8689    2.0755 N.4     1  UNL1        0.0000
     18 O           7.2258    3.7070   -0.5122 O.3     1  UNL1        0.0000
     19 C           7.5403    5.7654    0.5826 C.3     1  UNL1        0.0000
     20 H           5.6673    6.3276    1.2558 H       1  UNL1        0.0000
     21 H           5.7069    5.9256   -0.3368 H       1  UNL1        0.0000
     22 C           7.9988    5.2321    1.9406 C.3     1  UNL1        0.0000
     23 H           8.1217    3.2059    1.7281 H       1  UNL1        0.0000
     24 H           7.3006    3.6494    3.0625 H       1  UNL1        0.0000
     25 C           8.0143    4.7262   -0.4955 C.2     1  UNL1        0.0000
     26 H           7.9216    6.7688    0.3752 H       1  UNL1        0.0000
     27 H           9.0899    5.2259    1.9976 H       1  UNL1        0.0000
     28 H           7.6079    5.8651    2.7424 H       1  UNL1        0.0000
     29 O           9.0108    4.8765   -1.1397 O.2     1  UNL1        0.0000
@<TRIPOS>BOND
     1    15     2    2
     2    29    25    2
     3    18    25    1
     4    18     1    1
     5    14     2    1
     6    14     1    1
     7    25    19    1
     8     2     3    1
     9    21    16    1
    10     6    12    1
    11     9     3    1
    12    26    19    1
    13    19    16    1
    14    19    22    1
    15     3    12    1
    16     3     4    1
    17    12     1    1
    18    12     5    1
    19    16     1    1
    20    16    20    1
    21     1    17    1
    22     1    13    1
    23     7    13    1
    24    23    17    1
    25    22    27    1
    26    22    17    1
    27    22    28    1
    28     4    10    1
    29     4    13    1
    30     4    11    1
    31    17    24    1
    32    13     8    1
