@<TRIPOS>MOLECULE
CSD_code = ARIMUJ | q = 1 | S = 0 | Stoichiometry = C11H22CoN4O5(1+) | MND = 6
 43 44 0 0 0
SMALL
GASTEIGER

@<TRIPOS>ATOM
      1 CO          1.1010    9.5367   -0.0067 Co.oh   1  UNL1        0.0000
      2 C           3.3500    8.6326   -3.3366 C.3     1  UNL1        0.0000
      3 H           4.1748    9.3276   -3.2004 H       1  UNL1        0.0000
      4 H           2.8595    8.8308   -4.2892 H       1  UNL1        0.0000
      5 H           3.7403    7.6170   -3.3810 H       1  UNL1        0.0000
      6 C           2.3733    8.7426   -2.2269 C.2     1  UNL1        0.0000
      7 C           1.2074    7.9200   -2.1291 C.2     1  UNL1        0.0000
      8 C           0.9019    6.7852   -3.0471 C.3     1  UNL1        0.0000
      9 H          -0.0446    6.3366   -2.7541 H       1  UNL1        0.0000
     10 H           1.6845    6.0300   -2.9995 H       1  UNL1        0.0000
     11 H           0.8244    7.1300   -4.0768 H       1  UNL1        0.0000
     12 C          -1.1329   10.4463    3.4004 C.3     1  UNL1        0.0000
     13 H          -2.0117    9.8407    3.1939 H       1  UNL1        0.0000
     14 H          -1.4338   11.4930    3.4346 H       1  UNL1        0.0000
     15 H          -0.7280   10.1825    4.3750 H       1  UNL1        0.0000
     16 C          -0.1183   10.2436    2.3330 C.2     1  UNL1        0.0000
     17 C           1.2263   10.7904    2.4358 C.2     1  UNL1        0.0000
     18 C           1.6994   11.4715    3.6681 C.3     1  UNL1        0.0000
     19 H           2.6916   11.8862    3.5107 H       1  UNL1        0.0000
     20 H           1.7401   10.7677    4.4986 H       1  UNL1        0.0000
     21 H           1.0111   12.2682    3.9432 H       1  UNL1        0.0000
     22 C           2.7028   11.7815   -1.9398 C.3     1  UNL1        0.0000
     23 H           2.4466   11.5208   -2.9731 H       1  UNL1        0.0000
     24 H           3.4603   12.5662   -1.9407 H       1  UNL1        0.0000
     25 C           1.4473   12.2180   -1.1796 C.3     1  UNL1        0.0000
     26 H           1.7277   12.6358   -0.2115 H       1  UNL1        0.0000
     27 H           0.9920   13.0259   -1.7588 H       1  UNL1        0.0000
     28 C           0.4172   11.1102   -1.0136 C.3     1  UNL1        0.0000
     29 H           0.0654   10.7866   -1.9959 H       1  UNL1        0.0000
     30 H          -0.4354   11.4992   -0.4559 H       1  UNL1        0.0000
     31 N           2.4472    9.5990   -1.2516 N.3     1  UNL1        0.0000
     32 N           0.3973    8.3070   -1.1723 N.3     1  UNL1        0.0000
     33 N          -0.3365    9.5834    1.2440 N.3     1  UNL1        0.0000
     34 N           1.9369   10.6232    1.3733 N.3     1  UNL1        0.0000
     35 O           3.3475   10.6614   -1.3251 O.3     1  UNL1        0.0000
     36 O          -0.6959    7.7230   -0.9246 O.3     1  UNL1        0.0000
     37 O          -1.5602    9.0588    1.0525 O.3     1  UNL1        0.0000
     38 H          -1.4711    8.4694    0.2234 H       1  UNL1        0.0000
     39 O           3.2341   11.0660    1.4019 O.3     1  UNL1        0.0000
     40 H           3.5739   10.9876    0.4828 H       1  UNL1        0.0000
     41 O           1.9684    7.7524    0.9894 O.3     2  HOH2        0.0000
     42 H           1.4160    6.9828    1.1584 H       0  HOH0        0.0000
     43 H           2.6668    7.7676    1.6492 H       0  HOH0        0.0000
@<TRIPOS>BOND
     1     4     2    1
     2    11     8    1
     3     5     2    1
     4     2     3    1
     5     2     6    1
     6     8    10    1
     7     8     9    1
     8     8     7    1
     9    23    22    1
    10     6     7    2
    11     6    31    1
    12     7    32    1
    13    29    28    1
    14    24    22    1
    15    22    35    1
    16    22    25    1
    17    27    25    1
    18    35    31    1
    19    31     1    1
    20    25    28    1
    21    25    26    1
    22    32    36    1
    23    32     1    1
    24    28    30    1
    25    28     1    1
    26     1    33    1
    27     1    34    1
    28    38    37    1
    29    40    39    1
    30    41    42    1
    31    41    43    1
    32    37    33    1
    33    33    16    1
    34    34    39    1
    35    34    17    1
    36    16    17    2
    37    16    12    1
    38    17    18    1
    39    13    12    1
    40    12    14    1
    41    12    15    1
    42    19    18    1
    43    18    21    1
    44    18    20    1
