@<TRIPOS>MOLECULE
CSD_code = ASGLCO | q = -1 | S = 0 | Stoichiometry = C18H14CoN2O6(1-) | MND = 6
 41 46 0 0 0
SMALL
GASTEIGER

@<TRIPOS>ATOM
      1 CO         -4.3886   -0.4959   13.3275 Co.oh   1  UNL1        0.0000
      2 C          -3.8698   -2.0714   11.1939 C.2     1  UNL1        0.0000
      3 C          -5.5974    1.5862   12.0998 C.2     1  UNL1        0.0000
      4 C          -4.1616    2.0847   12.4374 C.3     1  UNL1        0.0000
      5 C          -2.5829    1.5000   14.0955 C.3     1  UNL1        0.0000
      6 C          -1.8714    0.6328   14.9763 C.ar    1  UNL1        0.0000
      7 C          -0.8557    1.1644   15.7844 C.ar    1  UNL1        0.0000
      8 C          -0.1183    0.3772   16.6328 C.ar    1  UNL1        0.0000
      9 C          -0.3843   -0.9931   16.6889 C.ar    1  UNL1        0.0000
     10 C          -1.3666   -1.5476   15.9134 C.ar    1  UNL1        0.0000
     11 C          -2.1562   -0.7676   15.0266 C.ar    1  UNL1        0.0000
     12 C          -5.0899   -2.7285   11.9036 C.3     1  UNL1        0.0000
     13 C          -5.8693   -2.7298   14.1343 C.3     1  UNL1        0.0000
     14 C          -6.1350   -2.1900   15.4273 C.ar    1  UNL1        0.0000
     15 C          -6.7899   -2.9865   16.3780 C.ar    1  UNL1        0.0000
     16 C          -7.0977   -2.5153   17.6297 C.ar    1  UNL1        0.0000
     17 C          -6.7527   -1.2035   17.9637 C.ar    1  UNL1        0.0000
     18 C          -6.1143   -0.3963   17.0612 C.ar    1  UNL1        0.0000
     19 C          -5.7726   -0.8467   15.7579 C.ar    1  UNL1        0.0000
     20 H          -4.1740    3.1042   12.8400 H       1  UNL1        0.0000
     21 H          -3.6149    2.0816   11.4863 H       1  UNL1        0.0000
     22 H          -2.2460    2.5410   14.0630 H       1  UNL1        0.0000
     23 H          -0.6584    2.2277   15.7274 H       1  UNL1        0.0000
     24 H           0.6587    0.8065   17.2490 H       1  UNL1        0.0000
     25 H           0.1927   -1.6216   17.3547 H       1  UNL1        0.0000
     26 H          -1.5768   -2.6062   15.9540 H       1  UNL1        0.0000
     27 H          -4.9812   -3.8176   11.9644 H       1  UNL1        0.0000
     28 H          -5.9602   -2.4895   11.2800 H       1  UNL1        0.0000
     29 H          -6.2506   -3.7377   13.9420 H       1  UNL1        0.0000
     30 H          -7.0542   -4.0002   16.1036 H       1  UNL1        0.0000
     31 H          -7.6008   -3.1458   18.3487 H       1  UNL1        0.0000
     32 H          -6.9922   -0.8234   18.9483 H       1  UNL1        0.0000
     33 H          -5.8445    0.6182   17.3151 H       1  UNL1        0.0000
     34 N          -5.2479   -2.1162   13.1943 N.3     1  UNL1        0.0000
     35 N          -3.5543    1.1428   13.3373 N.3     1  UNL1        0.0000
     36 O          -5.1787   -0.0298   14.9685 O.3     1  UNL1        0.0000
     37 O          -3.5105   -0.9706   11.7124 O.3     1  UNL1        0.0000
     38 O          -3.3786   -2.6068   10.2162 O.2     1  UNL1        0.0000
     39 O          -5.7930    0.3651   12.3833 O.3     1  UNL1        0.0000
     40 O          -6.3955    2.3469   11.5819 O.2     1  UNL1        0.0000
     41 O          -3.0547   -1.3609   14.3309 O.3     1  UNL1        0.0000
@<TRIPOS>BOND
     1    38     2    2
     2     2    37    1
     3     2    12    1
     4    28    12    1
     5    21     4    1
     6    40     3    2
     7    37     1    1
     8    12    27    1
     9    12    34    1
    10     3    39    1
    11     3     4    1
    12    39     1    1
    13     4    20    1
    14     4    35    1
    15    34     1    1
    16    34    13    1
    17     1    35    1
    18     1    41    1
    19     1    36    1
    20    35     5    1
    21    29    13    1
    22    22     5    1
    23     5     6    1
    24    13    14    1
    25    41    11    1
    26    36    19    1
    27     6    11   ar
    28     6     7   ar
    29    11    10   ar
    30    14    19   ar
    31    14    15   ar
    32    23     7    1
    33    19    18   ar
    34     7     8   ar
    35    10    26    1
    36    10     9   ar
    37    30    15    1
    38    15    16   ar
    39     8     9   ar
    40     8    24    1
    41     9    25    1
    42    18    33    1
    43    18    17   ar
    44    16    17   ar
    45    16    31    1
    46    17    32    1
