@<TRIPOS>MOLECULE
CSD_code = ATOZIU | q = 1 | S = 0 | Stoichiometry = C30H24CoN6O6(1+) | MND = 6
 67 76 0 0 0
SMALL
GASTEIGER

@<TRIPOS>ATOM
      1 CO          5.0810    4.8990    8.2050 Co.oh   1  UNL1        0.0000
      2 O           4.3850    3.5722    7.0674 O.2     1  UNL1        0.0000
      3 O           0.5022   -0.9084    4.8905 O.3     1  UNL1        0.0000
      4 O          -0.8273    0.6609    6.8554 O.3     1  UNL1        0.0000
      5 O           5.7882    3.5674    9.3298 O.2     1  UNL1        0.0000
      6 O           9.7031   -0.9065   11.4599 O.3     1  UNL1        0.0000
      7 O          11.0231    0.6953    9.5150 O.3     1  UNL1        0.0000
      8 N           3.4310    4.8040    8.9405 N.pl3   1  UNL1        0.0000
      9 N           2.6004    3.9313    8.4279 N.2     1  UNL1        0.0000
     10 N           5.4095    6.2141    9.5488 N.pl3   1  UNL1        0.0000
     11 N           7.5703    3.9561    7.9742 N.2     1  UNL1        0.0000
     12 N           6.7322    4.8263    7.4698 N.pl3   1  UNL1        0.0000
     13 N           4.7413    6.2244    6.8745 N.pl3   1  UNL1        0.0000
     14 C           3.1933    3.2803    7.4204 C.2     1  UNL1        0.0000
     15 C           2.4607    2.2272    6.7413 C.ar    1  UNL1        0.0000
     16 C           3.0735    1.5045    5.7106 C.ar    1  UNL1        0.0000
     17 H           4.0821    1.7540    5.4222 H       1  UNL1        0.0000
     18 C           2.3996    0.4770    5.0954 C.ar    1  UNL1        0.0000
     19 H           2.8556   -0.1084    4.3135 H       1  UNL1        0.0000
     20 C           1.1015    0.1469    5.4869 C.ar    1  UNL1        0.0000
     21 C          -0.6811   -1.3499    5.5309 C.3     1  UNL1        0.0000
     22 H          -1.2008   -1.9855    4.8135 H       1  UNL1        0.0000
     23 H          -0.4180   -1.9357    6.4209 H       1  UNL1        0.0000
     24 C          -1.5351   -0.1538    5.9417 C.3     1  UNL1        0.0000
     25 H          -1.7980    0.4304    5.0499 H       1  UNL1        0.0000
     26 H          -2.4439   -0.4721    6.4528 H       1  UNL1        0.0000
     27 C           0.4621    0.9054    6.4866 C.ar    1  UNL1        0.0000
     28 C           1.1493    1.9275    7.1150 C.ar    1  UNL1        0.0000
     29 H           0.6638    2.4894    7.8947 H       1  UNL1        0.0000
     30 C           3.2104    5.5347    9.9903 C.2     1  UNL1        0.0000
     31 H           2.2861    5.4950   10.5489 H       1  UNL1        0.0000
     32 C           4.3242    6.3550   10.3544 C.2     1  UNL1        0.0000
     33 C           4.3440    7.2262   11.4475 C.2     1  UNL1        0.0000
     34 H           3.4658    7.3123   12.0665 H       1  UNL1        0.0000
     35 C           5.4876    7.9496   11.7151 C.2     1  UNL1        0.0000
     36 H           5.5275    8.6239   12.5561 H       1  UNL1        0.0000
     37 C           6.5911    7.7920   10.8833 C.2     1  UNL1        0.0000
     38 H           7.5049    8.3345   11.0594 H       1  UNL1        0.0000
     39 C           6.5062    6.9156    9.8166 C.2     1  UNL1        0.0000
     40 H           7.3528    6.7720    9.1591 H       1  UNL1        0.0000
     41 C           6.9826    3.2896    8.9747 C.2     1  UNL1        0.0000
     42 C           7.7236    2.2359    9.6436 C.ar    1  UNL1        0.0000
     43 C           7.1155    1.4978   10.6662 C.ar    1  UNL1        0.0000
     44 H           6.1050    1.7369   10.9566 H       1  UNL1        0.0000
     45 C           7.7965    0.4685   11.2705 C.ar    1  UNL1        0.0000
     46 H           7.3442   -0.1287   12.0457 H       1  UNL1        0.0000
     47 C           9.0969    0.1517   10.8759 C.ar    1  UNL1        0.0000
     48 C          10.8885   -1.3331   10.8135 C.3     1  UNL1        0.0000
     49 H          10.6284   -1.9082    9.9157 H       1  UNL1        0.0000
     50 H          11.4119   -1.9754   11.5221 H       1  UNL1        0.0000
     51 C          11.7356   -0.1267   10.4184 C.3     1  UNL1        0.0000
     52 H          11.9946    0.4474   11.3179 H       1  UNL1        0.0000
     53 H          12.6464   -0.4329    9.9036 H       1  UNL1        0.0000
     54 C           9.7316    0.9262    9.8854 C.ar    1  UNL1        0.0000
     55 C           9.0375    1.9502    9.2678 C.ar    1  UNL1        0.0000
     56 H           9.5194    2.5243    8.4947 H       1  UNL1        0.0000
     57 C           6.9475    5.5712    6.4289 C.2     1  UNL1        0.0000
     58 H           7.8731    5.5470    5.8715 H       1  UNL1        0.0000
     59 C           5.8266    6.3851    6.0725 C.2     1  UNL1        0.0000
     60 C           5.8003    7.2692    4.9899 C.2     1  UNL1        0.0000
     61 H           6.6788    7.3712    4.3737 H       1  UNL1        0.0000
     62 C           4.6502    7.9846    4.7287 C.2     1  UNL1        0.0000
     63 H           4.6054    8.6685    3.8958 H       1  UNL1        0.0000
     64 C           3.5466    7.8060    5.5562 C.2     1  UNL1        0.0000
     65 H           2.6278    8.3414    5.3845 H       1  UNL1        0.0000
     66 C           3.6382    6.9180    6.6126 C.2     1  UNL1        0.0000
     67 H           2.7918    6.7582    7.2667 H       1  UNL1        0.0000
@<TRIPOS>BOND
     1    63    62    1
     2    19    18    1
     3    61    60    1
     4    62    60    2
     5    62    64    1
     6    22    21    1
     7     3    20    1
     8     3    21    1
     9    60    59    1
    10    25    24    1
    11    18    20   ar
    12    18    16   ar
    13    65    64    1
    14    17    16    1
    15    20    27   ar
    16    21    24    1
    17    21    23    1
    18    64    66    2
    19    16    15   ar
    20    58    57    1
    21    24    26    1
    22    24     4    1
    23    59    57    2
    24    59    13    1
    25    57    12    1
    26    27     4    1
    27    27    28   ar
    28    66    13    1
    29    66    67    1
    30    15    28   ar
    31    15    14    1
    32    13     1    1
    33     2    14    1
    34     2     1    1
    35    28    29    1
    36    14     9    2
    37    12    11    1
    38    12     1    1
    39    11    41    2
    40     1     8    1
    41     1     5    1
    42     1    10    1
    43     9     8    1
    44    56    55    1
    45     8    30    1
    46    41     5    1
    47    41    42    1
    48    40    39    1
    49    55    42   ar
    50    55    54   ar
    51     7    54    1
    52     7    51    1
    53    10    39    1
    54    10    32    1
    55    42    43   ar
    56    39    37    2
    57    54    47   ar
    58    53    51    1
    59    49    48    1
    60    30    32    2
    61    30    31    1
    62    32    33    1
    63    51    48    1
    64    51    52    1
    65    43    44    1
    66    43    45   ar
    67    48     6    1
    68    48    50    1
    69    47    45   ar
    70    47     6    1
    71    37    38    1
    72    37    35    1
    73    45    46    1
    74    33    35    2
    75    33    34    1
    76    35    36    1
