@<TRIPOS>MOLECULE
CSD_code = BAFBAN | q = -1 | S = 0 | Stoichiometry = C14H6CoN2O8(1-) | MND = 6
 31 36 0 0 0
SMALL
GASTEIGER

@<TRIPOS>ATOM
      1 CO          7.1319   -3.3366   -3.2455 Co.oh   1  UNL1        0.0000
      2 O           8.4486   -1.9605   -3.1834 O.3     1  UNL1        0.0000
      3 O           9.7870   -0.9028   -1.7460 O.2     1  UNL1        0.0000
      4 O           5.7431   -2.0386   -3.1162 O.3     1  UNL1        0.0000
      5 O           5.8822   -4.7382   -2.9232 O.3     1  UNL1        0.0000
      6 N           6.8338   -3.2150   -4.9878 N.pl3   1  UNL1        0.0000
      7 N           7.4358   -3.4546   -1.5040 N.pl3   1  UNL1        0.0000
      8 O           8.4542   -4.6087   -3.7593 O.3     1  UNL1        0.0000
      9 C           5.8062   -5.1302   -1.7044 C.2     1  UNL1        0.0000
     10 O           5.0837   -6.0060   -1.2705 O.2     1  UNL1        0.0000
     11 C           8.3352   -2.6427   -0.9555 C.3     1  UNL1        0.0000
     12 O           9.3204   -5.5754   -5.5735 O.2     1  UNL1        0.0000
     13 C           8.5528   -4.8114   -5.0219 C.2     1  UNL1        0.0000
     14 C           7.3670   -3.8780   -7.1844 C.2     1  UNL1        0.0000
     15 C           6.9741   -4.4758    0.5679 C.2     1  UNL1        0.0000
     16 H           6.4165   -5.2109    1.1268 H       1  UNL1        0.0000
     17 C           6.7585   -4.3538   -0.7957 C.2     1  UNL1        0.0000
     18 O           4.3514   -0.8524   -4.3939 O.2     1  UNL1        0.0000
     19 C           7.5639   -3.9579   -5.8149 C.3     1  UNL1        0.0000
     20 C           5.6482   -2.2434   -6.7764 C.2     1  UNL1        0.0000
     21 H           4.8863   -1.5559   -7.1089 H       1  UNL1        0.0000
     22 C           7.9082   -3.6402    1.1685 C.2     1  UNL1        0.0000
     23 H           8.0961   -3.7141    2.2302 H       1  UNL1        0.0000
     24 C           5.2407   -1.6656   -4.2358 C.2     1  UNL1        0.0000
     25 C           5.8979   -2.3743   -5.4195 C.2     1  UNL1        0.0000
     26 C           8.6008   -2.7096    0.4030 C.2     1  UNL1        0.0000
     27 H           9.3333   -2.0433    0.8309 H       1  UNL1        0.0000
     28 C           6.3955   -3.0078   -7.6645 C.2     1  UNL1        0.0000
     29 H           6.2221   -2.9247   -8.7280 H       1  UNL1        0.0000
     30 C           8.9410   -1.7309   -2.0217 C.2     1  UNL1        0.0000
     31 H           7.9685   -4.4875   -7.8405 H       1  UNL1        0.0000
@<TRIPOS>BOND
     1    29    28    1
     2    31    14    1
     3    28    14    2
     4    28    20    1
     5    14    19    1
     6    21    20    1
     7    20    25    2
     8    19    13    1
     9    19     6    1
    10    12    13    2
    11    25     6    1
    12    25    24    1
    13    13     8    1
    14     6     1    1
    15    18    24    2
    16    24     4    1
    17     8     1    1
    18     1     2    1
    19     1     4    1
    20     1     5    1
    21     1     7    1
    22     2    30    1
    23     5     9    1
    24    30     3    2
    25    30    11    1
    26     9    10    2
    27     9    17    1
    28     7    11    1
    29     7    17    1
    30    11    26    1
    31    17    15    2
    32    26    27    1
    33    26    22    2
    34    15    16    1
    35    15    22    1
    36    22    23    1
