@<TRIPOS>MOLECULE
CSD_code = BALDID | q = 1 | S = 0 | Stoichiometry = C60H44CoN6S4(1+) | MND = 6
 115 128 0 0 0
SMALL
GASTEIGER

@<TRIPOS>ATOM
      1 CO          0.7654   10.3160   11.0697 Co.oh   1  UNL1        0.0000
      2 S           1.0409    9.4547   13.2282 S.3     1  UNL1        0.0000
      3 S           0.9754   11.3099    8.9615 S.3     1  UNL1        0.0000
      4 N           3.3924    9.6646   14.5351 N.pl3   1  UNL1        0.0000
      5 H           4.3541    9.9999   14.4722 H       1  UNL1        0.0000
      6 N           2.5157   10.7816   11.2458 N.ar    1  UNL1        0.0000
      7 N           3.3231   12.3408    8.1224 N.pl3   1  UNL1        0.0000
      8 H           4.2975   12.5092    8.3746 H       1  UNL1        0.0000
      9 C           1.8904    8.4966   16.1079 C.ar    1  UNL1        0.0000
     10 H           1.0793    8.4723   15.4006 H       1  UNL1        0.0000
     11 C           1.7228    7.9403   17.3636 C.ar    1  UNL1        0.0000
     12 H           0.7754    7.4902   17.6171 H       1  UNL1        0.0000
     13 C           2.7520    7.9555   18.2888 C.ar    1  UNL1        0.0000
     14 H           2.6111    7.5195   19.2652 H       1  UNL1        0.0000
     15 C           3.9666    8.5339   17.9531 C.ar    1  UNL1        0.0000
     16 H           4.7758    8.5500   18.6666 H       1  UNL1        0.0000
     17 C           4.1459    9.0916   16.7041 C.ar    1  UNL1        0.0000
     18 H           5.0935    9.5424   16.4422 H       1  UNL1        0.0000
     19 C           3.1072    9.0796   15.7689 C.ar    1  UNL1        0.0000
     20 C           2.6790    9.8673   13.4253 C.3     1  UNL1        0.0000
     21 C           3.2984   10.5049   12.3119 C.ar    1  UNL1        0.0000
     22 C           4.6047   11.0121   12.0725 C.ar    1  UNL1        0.0000
     23 C           4.5655   11.6309   10.8243 C.ar    1  UNL1        0.0000
     24 C           3.2454   11.4529   10.3277 C.ar    1  UNL1        0.0000
     25 C           2.6099   11.7615    9.0905 C.3     1  UNL1        0.0000
     26 C           3.0188   12.7771    6.8330 C.ar    1  UNL1        0.0000
     27 C           4.0860   13.3029    6.0994 C.ar    1  UNL1        0.0000
     28 H           5.0707   13.3424    6.5452 H       1  UNL1        0.0000
     29 C           3.8883   13.7682    4.8158 C.ar    1  UNL1        0.0000
     30 H           4.7203   14.1710    4.2594 H       1  UNL1        0.0000
     31 C           2.6256   13.7188    4.2450 C.ar    1  UNL1        0.0000
     32 H           2.4702   14.0826    3.2416 H       1  UNL1        0.0000
     33 C           1.5666   13.2018    4.9706 C.ar    1  UNL1        0.0000
     34 H           0.5807   13.1626    4.5338 H       1  UNL1        0.0000
     35 C           1.7526   12.7313    6.2585 C.ar    1  UNL1        0.0000
     36 H           0.9159   12.3363    6.8087 H       1  UNL1        0.0000
     37 C           5.7807   10.9224   12.9396 C.ar    1  UNL1        0.0000
     38 C           6.2389    9.6821   13.3894 C.ar    1  UNL1        0.0000
     39 H           5.7296    8.7791   13.0794 H       1  UNL1        0.0000
     40 C           7.3633    9.6019   14.1917 C.ar    1  UNL1        0.0000
     41 H           7.7118    8.6371   14.5287 H       1  UNL1        0.0000
     42 C           8.0427   10.7536   14.5531 C.ar    1  UNL1        0.0000
     43 H           8.9192   10.6895   15.1791 H       1  UNL1        0.0000
     44 C           7.6009   11.9865   14.1001 C.ar    1  UNL1        0.0000
     45 H           8.1339   12.8845   14.3727 H       1  UNL1        0.0000
     46 C           6.4798   12.0731   13.2961 C.ar    1  UNL1        0.0000
     47 H           6.1343   13.0335   12.9438 H       1  UNL1        0.0000
     48 C           5.6873   12.3162   10.1802 C.ar    1  UNL1        0.0000
     49 C           6.9052   11.6617   10.0109 C.ar    1  UNL1        0.0000
     50 H           7.0076   10.6390   10.3416 H       1  UNL1        0.0000
     51 C           7.9700   12.3134    9.4172 C.ar    1  UNL1        0.0000
     52 H           8.9085   11.7963    9.2884 H       1  UNL1        0.0000
     53 C           7.8370   13.6252    8.9910 C.ar    1  UNL1        0.0000
     54 H           8.6707   14.1313    8.5293 H       1  UNL1        0.0000
     55 C           6.6349   14.2899    9.1689 C.ar    1  UNL1        0.0000
     56 H           6.5300   15.3170    8.8530 H       1  UNL1        0.0000
     57 C           5.5644   13.6424    9.7603 C.ar    1  UNL1        0.0000
     58 H           4.6372   14.1738    9.9300 H       1  UNL1        0.0000
     59 S           1.1640    8.2040   10.1430 S.3     1  UNL1        0.0000
     60 S          -0.1203   12.2967   11.9489 S.3     1  UNL1        0.0000
     61 N          -0.8665    6.5554    9.4793 N.pl3   1  UNL1        0.0000
     62 H          -1.8814    6.4533    9.4488 H       1  UNL1        0.0000
     63 N          -0.9836    9.8478   10.8880 N.ar    1  UNL1        0.0000
     64 N          -2.7845   12.6944   12.1084 N.pl3   1  UNL1        0.0000
     65 H          -3.7009   12.2832   11.9281 H       1  UNL1        0.0000
     66 C           1.1832    5.3044    8.9066 C.ar    1  UNL1        0.0000
     67 H           1.8262    6.1170    9.1980 H       1  UNL1        0.0000
     68 C           1.7355    4.1321    8.4216 C.ar    1  UNL1        0.0000
     69 H           2.8085    4.0490    8.3440 H       1  UNL1        0.0000
     70 C           0.9295    3.0745    8.0376 C.ar    1  UNL1        0.0000
     71 H           1.3698    2.1649    7.6607 H       1  UNL1        0.0000
     72 C          -0.4484    3.1909    8.1394 C.ar    1  UNL1        0.0000
     73 H          -1.0858    2.3727    7.8419 H       1  UNL1        0.0000
     74 C          -1.0108    4.3547    8.6217 C.ar    1  UNL1        0.0000
     75 H          -2.0857    4.4454    8.7010 H       1  UNL1        0.0000
     76 C          -0.1990    5.4235    9.0113 C.ar    1  UNL1        0.0000
     77 C          -0.4595    7.7392    9.9423 C.3     1  UNL1        0.0000
     78 C          -1.4351    8.6998   10.3367 C.ar    1  UNL1        0.0000
     79 C          -2.8565    8.7045   10.3538 C.ar    1  UNL1        0.0000
     80 C          -3.2402    9.8961   10.9662 C.ar    1  UNL1        0.0000
     81 C          -2.0411   10.5957   11.2726 C.ar    1  UNL1        0.0000
     82 C          -1.7650   11.8900   11.8004 C.3     1  UNL1        0.0000
     83 C          -2.8689   13.9836   12.6343 C.ar    1  UNL1        0.0000
     84 C          -4.1596   14.5003   12.7769 C.ar    1  UNL1        0.0000
     85 H          -5.0093   13.9010   12.4793 H       1  UNL1        0.0000
     86 C          -4.3517   15.7654   13.2925 C.ar    1  UNL1        0.0000
     87 H          -5.3531   16.1535   13.3969 H       1  UNL1        0.0000
     88 C          -3.2624   16.5334   13.6746 C.ar    1  UNL1        0.0000
     89 H          -3.4119   17.5227   14.0775 H       1  UNL1        0.0000
     90 C          -1.9834   16.0229   13.5369 C.ar    1  UNL1        0.0000
     91 H          -1.1312   16.6141   13.8342 H       1  UNL1        0.0000
     92 C          -1.7779   14.7555   13.0209 C.ar    1  UNL1        0.0000
     93 H          -0.7759   14.3740   12.9245 H       1  UNL1        0.0000
     94 C          -3.7676    7.6802    9.8401 C.ar    1  UNL1        0.0000
     95 C          -3.6895    7.2639    8.5093 C.ar    1  UNL1        0.0000
     96 H          -2.9617    7.7168    7.8489 H       1  UNL1        0.0000
     97 C          -4.5647    6.3084    8.0239 C.ar    1  UNL1        0.0000
     98 H          -4.4987    5.9982    6.9918 H       1  UNL1        0.0000
     99 C          -5.5256    5.7592    8.8568 C.ar    1  UNL1        0.0000
    100 H          -6.2067    5.0134    8.4771 H       1  UNL1        0.0000
    101 C          -5.6173    6.1775   10.1747 C.ar    1  UNL1        0.0000
    102 H          -6.3713    5.7580   10.8230 H       1  UNL1        0.0000
    103 C          -4.7479    7.1339   10.6650 C.ar    1  UNL1        0.0000
    104 H          -4.8178    7.4593   11.6921 H       1  UNL1        0.0000
    105 C          -4.6197   10.3134   11.2227 C.ar    1  UNL1        0.0000
    106 C          -5.5466   10.3484   10.1836 C.ar    1  UNL1        0.0000
    107 H          -5.2332   10.0837    9.1849 H       1  UNL1        0.0000
    108 C          -6.8535   10.7270   10.4280 C.ar    1  UNL1        0.0000
    109 H          -7.5632   10.7535    9.6153 H       1  UNL1        0.0000
    110 C          -7.2542   11.0688   11.7097 C.ar    1  UNL1        0.0000
    111 H          -8.2754   11.3626   11.8971 H       1  UNL1        0.0000
    112 C          -6.3440   11.0220   12.7526 C.ar    1  UNL1        0.0000
    113 H          -6.6542   11.2720   13.7562 H       1  UNL1        0.0000
    114 C          -5.0337   10.6463   12.5143 C.ar    1  UNL1        0.0000
    115 H          -4.3327   10.5764   13.3356 H       1  UNL1        0.0000
@<TRIPOS>BOND
     1    32    31    1
     2    31    29   ar
     3    31    33   ar
     4    30    29    1
     5    34    33    1
     6    29    27   ar
     7    33    35   ar
     8    27    28    1
     9    27    26   ar
    10    35    36    1
    11    35    26   ar
    12    26     7    1
    13    98    97    1
    14    71    70    1
    15    73    72    1
    16    96    95    1
    17    97    95   ar
    18    97    99   ar
    19    70    72   ar
    20    70    68   ar
    21     7     8    1
    22     7    25    1
    23    72    74   ar
    24    69    68    1
    25    68    66   ar
    26   100    99    1
    27    95    94   ar
    28    54    53    1
    29    74    75    1
    30    74    76   ar
    31    56    55    1
    32    99   101   ar
    33    66    76   ar
    34    66    67    1
    35     3    25    1
    36     3     1    1
    37    53    55   ar
    38    53    51   ar
    39    76    61    1
    40    25    24    1
    41    55    57   ar
    42   107   106    1
    43    52    51    1
    44    51    49   ar
    45    62    61    1
    46    61    77    1
    47   109   108    1
    48    57    58    1
    49    57    48   ar
    50    94    79    1
    51    94   103   ar
    52    77    59    1
    53    77    78    1
    54    49    48   ar
    55    49    50    1
    56    59     1    1
    57   101   103   ar
    58   101   102    1
    59    48    23    1
    60   106   108   ar
    61   106   105   ar
    62    24    23   ar
    63    24     6   ar
    64    78    79   ar
    65    78    63   ar
    66    79    80   ar
    67   108   110   ar
    68   103   104    1
    69    23    22   ar
    70    63     1    1
    71    63    81   ar
    72    80   105    1
    73    80    81   ar
    74     1     6    1
    75     1    60    1
    76     1     2    1
    77   105   114   ar
    78     6    21   ar
    79    81    82    1
    80   110   111    1
    81   110   112   ar
    82    82    60    1
    83    82    64    1
    84    65    64    1
    85    22    21   ar
    86    22    37    1
    87    64    83    1
    88    21    20    1
    89    85    84    1
    90   114   112   ar
    91   114   115    1
    92    83    84   ar
    93    83    92   ar
    94   112   113    1
    95    84    86   ar
    96    93    92    1
    97    37    46   ar
    98    37    38   ar
    99    47    46    1
   100    92    90   ar
   101    39    38    1
   102     2    20    1
   103    86    87    1
   104    86    88   ar
   105    46    44   ar
   106    38    40   ar
   107    20     4    1
   108    90    88   ar
   109    90    91    1
   110    88    89    1
   111    44    45    1
   112    44    42   ar
   113    40    41    1
   114    40    42   ar
   115     5     4    1
   116     4    19    1
   117    42    43    1
   118    10     9    1
   119    19     9   ar
   120    19    17   ar
   121     9    11   ar
   122    18    17    1
   123    17    15   ar
   124    11    12    1
   125    11    13   ar
   126    15    13   ar
   127    15    16    1
   128    13    14    1
