@<TRIPOS>MOLECULE
CSD_code = BIRQEA | q = 0 | S = 0 | Stoichiometry = C16H36CoN3P2 | MND = 4
 58 59 0 0 0
SMALL
GASTEIGER

@<TRIPOS>ATOM
      1 CO          4.8359    2.3663    4.3940 Co.oh   1  UNL1        0.0000
      2 P           5.7009    1.4263    2.6360 P.3     1  UNL1        0.0000
      3 P           4.0322    3.6572    5.9473 P.3     1  UNL1        0.0000
      4 N           4.0572    3.5355    3.2130 N.3     1  UNL1        0.0000
      5 C           2.9171    4.7788    5.0192 C.3     1  UNL1        0.0000
      6 H           1.9182    4.3388    5.0473 H       1  UNL1        0.0000
      7 H           2.8767    5.7840    5.4455 H       1  UNL1        0.0000
      8 C           4.3036    3.5661    1.7851 C.3     1  UNL1        0.0000
      9 H           5.0352    4.3595    1.5337 H       1  UNL1        0.0000
     10 H           3.3714    3.8420    1.2558 H       1  UNL1        0.0000
     11 C           4.7945    2.2205    1.2542 C.3     1  UNL1        0.0000
     12 H           5.4045    2.3316    0.3546 H       1  UNL1        0.0000
     13 H           3.9338    1.5884    1.0262 H       1  UNL1        0.0000
     14 C           3.4223    4.7864    3.5775 C.3     1  UNL1        0.0000
     15 H           2.5686    4.9779    2.8997 H       1  UNL1        0.0000
     16 H           4.1188    5.6350    3.4270 H       1  UNL1        0.0000
     17 C           4.0035   -0.7403    2.6671 C.3     1  UNL1        0.0000
     18 H           3.8756   -1.8146    2.7884 H       1  UNL1        0.0000
     19 H           3.3463   -0.4091    1.8654 H       1  UNL1        0.0000
     20 H           3.6935   -0.2461    3.5905 H       1  UNL1        0.0000
     21 C           5.4607   -0.4010    2.3605 C.3     1  UNL1        0.0000
     22 H           6.0839   -0.8870    3.1215 H       1  UNL1        0.0000
     23 C           5.1494    4.8149    6.8859 C.3     1  UNL1        0.0000
     24 H           4.5356    5.5750    7.3851 H       1  UNL1        0.0000
     25 C           2.9517    2.9224    7.2755 C.3     1  UNL1        0.0000
     26 H           3.6330    2.3331    7.9019 H       1  UNL1        0.0000
     27 C           7.4935    1.6978    2.2092 C.3     1  UNL1        0.0000
     28 H           7.6622    1.3945    1.1686 H       1  UNL1        0.0000
     29 C           5.8695   -0.8933    0.9766 C.3     1  UNL1        0.0000
     30 H           5.6397   -1.9539    0.8814 H       1  UNL1        0.0000
     31 H           6.9358   -0.7649    0.8067 H       1  UNL1        0.0000
     32 H           5.3267   -0.3593    0.1991 H       1  UNL1        0.0000
     33 C           5.9672    4.0396    7.9140 C.3     1  UNL1        0.0000
     34 H           6.7291    4.6822    8.3533 H       1  UNL1        0.0000
     35 H           6.4640    3.1962    7.4359 H       1  UNL1        0.0000
     36 H           5.3414    3.6588    8.7177 H       1  UNL1        0.0000
     37 C           7.7861    3.1873    2.3584 C.3     1  UNL1        0.0000
     38 H           8.8476    3.3896    2.2208 H       1  UNL1        0.0000
     39 H           7.4947    3.5172    3.3569 H       1  UNL1        0.0000
     40 H           7.2282    3.7715    1.6302 H       1  UNL1        0.0000
     41 C           8.3825    0.8851    3.1453 C.3     1  UNL1        0.0000
     42 H           9.4287    1.1506    2.9989 H       1  UNL1        0.0000
     43 H           8.2767   -0.1828    2.9696 H       1  UNL1        0.0000
     44 H           8.1181    1.0907    4.1819 H       1  UNL1        0.0000
     45 C           1.9756    1.9537    6.6114 C.3     1  UNL1        0.0000
     46 H           1.5113    1.3058    7.3529 H       1  UNL1        0.0000
     47 H           2.5057    1.3309    5.8873 H       1  UNL1        0.0000
     48 H           1.1863    2.4893    6.0874 H       1  UNL1        0.0000
     49 N           5.8422    0.5019    6.1568 N.3     1  UNL1        0.0000
     50 C           2.2233    3.9466    8.1386 C.3     1  UNL1        0.0000
     51 H           1.5763    3.4340    8.8495 H       1  UNL1        0.0000
     52 H           1.6027    4.5984    7.5268 H       1  UNL1        0.0000
     53 H           2.9209    4.5609    8.7027 H       1  UNL1        0.0000
     54 C           6.0702    5.4892    5.8739 C.3     1  UNL1        0.0000
     55 H           6.8026    6.1204    6.3756 H       1  UNL1        0.0000
     56 H           5.5044    6.1050    5.1785 H       1  UNL1        0.0000
     57 H           6.6009    4.7264    5.3018 H       1  UNL1        0.0000
     58 N           5.4230    1.2633    5.4340 N.3     1  UNL1        0.0000
@<TRIPOS>BOND
     1    32    29    1
     2    12    11    1
     3    31    29    1
     4    30    29    1
     5    29    21    1
     6    13    11    1
     7    28    27    1
     8    11     8    1
     9    11     2    1
    10    10     8    1
    11     9     8    1
    12    40    37    1
    13     8     4    1
    14    19    17    1
    15    27    37    1
    16    27     2    1
    17    27    41    1
    18    38    37    1
    19    37    39    1
    20    21     2    1
    21    21    17    1
    22    21    22    1
    23     2     1    1
    24    17    18    1
    25    17    20    1
    26    15    14    1
    27    43    41    1
    28    42    41    1
    29    41    44    1
    30     4    14    1
    31     4     1    1
    32    16    14    1
    33    14     5    1
    34     1    58    1
    35     1     3    1
    36     5     6    1
    37     5     7    1
    38     5     3    1
    39    56    54    1
    40    57    54    1
    41    58    49    1
    42    54    55    1
    43    54    23    1
    44    47    45    1
    45     3    23    1
    46     3    25    1
    47    48    45    1
    48    45    25    1
    49    45    46    1
    50    23    24    1
    51    23    33    1
    52    25    26    1
    53    25    50    1
    54    35    33    1
    55    52    50    1
    56    33    34    1
    57    33    36    1
    58    50    53    1
    59    50    51    1
