@<TRIPOS>MOLECULE
CSD_code = BOBVAR | q = 0 | S = 0 | Stoichiometry = C32H41CoN4 | MND = 4
 78 83 0 0 0
SMALL
GASTEIGER

@<TRIPOS>ATOM
      1 CO          4.4599    0.1363    2.5537 Co.oh   1  UNL1        0.0000
      2 N           6.2512   -0.4244    2.5000 N.pl3   1  UNL1        0.0000
      3 N           2.8359    1.0324    2.2647 N.pl3   1  UNL1        0.0000
      4 C           3.7464   -1.3671    3.5854 C.3     1  UNL1        0.0000
      5 H           4.3025   -2.3074    3.5359 H       1  UNL1        0.0000
      6 H           2.6967   -1.6246    3.4196 H       1  UNL1        0.0000
      7 H           3.8082   -1.0426    4.6360 H       1  UNL1        0.0000
      8 N           5.0233    1.2493    1.2703 N.pl3   1  UNL1        0.0000
      9 C          -0.4947   -0.0983    3.3830 C.ar    1  UNL1        0.0000
     10 H          -1.3071   -0.7188    3.0301 H       1  UNL1        0.0000
     11 C           7.4739    4.5350   -3.6359 C.3     1  UNL1        0.0000
     12 H           8.2330    4.4272   -4.4075 H       1  UNL1        0.0000
     13 H           7.6269    5.4859   -3.1240 H       1  UNL1        0.0000
     14 C          -0.5891    0.5010    4.6308 C.ar    1  UNL1        0.0000
     15 C           1.6719    0.8688    3.0373 C.ar    1  UNL1        0.0000
     16 C           4.4585    2.7167   -0.5253 C.2     1  UNL1        0.0000
     17 H           3.7188    3.3257   -1.0163 H       1  UNL1        0.0000
     18 C          -1.8172    0.3250    5.4737 C.3     1  UNL1        0.0000
     19 H          -2.5533    1.0926    5.2300 H       1  UNL1        0.0000
     20 H          -1.5771    0.4125    6.5308 H       1  UNL1        0.0000
     21 H          -2.2732   -0.6462    5.2953 H       1  UNL1        0.0000
     22 C           6.9884    0.1503    1.5786 C.3     1  UNL1        0.0000
     23 C           2.8504    1.9139    1.2924 C.2     1  UNL1        0.0000
     24 C           1.6952    2.7883    0.9146 C.3     1  UNL1        0.0000
     25 H           1.3539    2.5490   -0.0929 H       1  UNL1        0.0000
     26 H           2.0045    3.8335    0.9203 H       1  UNL1        0.0000
     27 H           0.8666    2.6592    1.6069 H       1  UNL1        0.0000
     28 C           1.6020    1.4683    4.2987 C.ar    1  UNL1        0.0000
     29 C           0.6192    0.0714    2.5766 C.ar    1  UNL1        0.0000
     30 N           6.1402    3.3122   -2.1443 N.pl3   1  UNL1        0.0000
     31 C           6.6726    1.7694   -0.3743 C.2     1  UNL1        0.0000
     32 H           7.6657    1.6164   -0.7611 H       1  UNL1        0.0000
     33 C           6.0518    4.4612   -4.1845 C.3     1  UNL1        0.0000
     34 H           5.7250    5.3912   -4.6445 H       1  UNL1        0.0000
     35 H           5.9779    3.6606   -4.9213 H       1  UNL1        0.0000
     36 C           5.7666    2.6206   -1.0311 C.2     1  UNL1        0.0000
     37 C           6.2662    1.0914    0.7677 C.2     1  UNL1        0.0000
     38 C           4.1159    2.0060    0.6179 C.2     1  UNL1        0.0000
     39 C           0.4720    1.2770    5.0754 C.ar    1  UNL1        0.0000
     40 H           0.4198    1.7402    6.0511 H       1  UNL1        0.0000
     41 C           5.2345    4.1069   -2.9441 C.3     1  UNL1        0.0000
     42 H           4.9316    5.0160   -2.4043 H       1  UNL1        0.0000
     43 H           4.3341    3.5386   -3.1963 H       1  UNL1        0.0000
     44 C           7.7205   -1.8327    5.5681 C.ar    1  UNL1        0.0000
     45 H           7.9781   -1.5046    6.5658 H       1  UNL1        0.0000
     46 C           8.4528   -0.0922    1.3823 C.3     1  UNL1        0.0000
     47 H           8.8461   -0.7467    2.1564 H       1  UNL1        0.0000
     48 H           8.9919    0.8547    1.4089 H       1  UNL1        0.0000
     49 H           8.6330   -0.5490    0.4087 H       1  UNL1        0.0000
     50 C           7.1754   -0.9202    4.6799 C.ar    1  UNL1        0.0000
     51 C           7.5015    3.3879   -2.6278 C.3     1  UNL1        0.0000
     52 H           7.7929    2.4472   -3.1170 H       1  UNL1        0.0000
     53 H           8.1988    3.5808   -1.8067 H       1  UNL1        0.0000
     54 C           6.9283    0.5044    5.0696 C.3     1  UNL1        0.0000
     55 H           6.9903    0.6318    6.1473 H       1  UNL1        0.0000
     56 H           5.9332    0.8043    4.7244 H       1  UNL1        0.0000
     57 H           7.6549    1.1662    4.5965 H       1  UNL1        0.0000
     58 C           7.5817   -3.5568    3.9253 C.ar    1  UNL1        0.0000
     59 H           7.7298   -4.5882    3.6359 H       1  UNL1        0.0000
     60 C           6.8399   -1.3409    3.3899 C.ar    1  UNL1        0.0000
     61 C           0.7195   -0.6015    1.2411 C.3     1  UNL1        0.0000
     62 H          -0.0038   -1.4095    1.1637 H       1  UNL1        0.0000
     63 H           1.7239   -1.0037    1.1053 H       1  UNL1        0.0000
     64 H           0.5302    0.1065    0.4338 H       1  UNL1        0.0000
     65 C           7.9361   -3.1539    5.2059 C.ar    1  UNL1        0.0000
     66 C           7.0363   -2.6731    3.0092 C.ar    1  UNL1        0.0000
     67 C           6.6346   -3.1256    1.6381 C.3     1  UNL1        0.0000
     68 H           5.6690   -2.6925    1.3755 H       1  UNL1        0.0000
     69 H           6.5645   -4.2098    1.5975 H       1  UNL1        0.0000
     70 H           7.3610   -2.8005    0.8929 H       1  UNL1        0.0000
     71 C           2.7555    2.2938    4.7785 C.3     1  UNL1        0.0000
     72 H           3.6903    1.7660    4.5622 H       1  UNL1        0.0000
     73 H           2.6851    2.4809    5.8470 H       1  UNL1        0.0000
     74 H           2.7889    3.2513    4.2570 H       1  UNL1        0.0000
     75 C           8.5424   -4.1338    6.1661 C.3     1  UNL1        0.0000
     76 H           7.9790   -5.0652    6.1701 H       1  UNL1        0.0000
     77 H           8.5583   -3.7301    7.1754 H       1  UNL1        0.0000
     78 H           9.5671   -4.3652    5.8730 H       1  UNL1        0.0000
@<TRIPOS>BOND
     1    35    33    1
     2    34    33    1
     3    12    11    1
     4    33    11    1
     5    33    41    1
     6    11    13    1
     7    11    51    1
     8    43    41    1
     9    52    51    1
    10    41    42    1
    11    41    30    1
    12    51    30    1
    13    51    53    1
    14    30    36    1
    15    36    16    2
    16    36    31    1
    17    17    16    1
    18    32    31    1
    19    16    38    1
    20    31    37    2
    21    25    24    1
    22    49    46    1
    23    64    61    1
    24    38     8    1
    25    38    23    2
    26    37     8    1
    27    37    22    1
    28    70    67    1
    29    24    26    1
    30    24    23    1
    31    24    27    1
    32    63    61    1
    33    62    61    1
    34    61    29    1
    35     8     1    1
    36    23     3    1
    37    68    67    1
    38    46    48    1
    39    46    22    1
    40    46    47    1
    41    22     2    1
    42    69    67    1
    43    67    66    1
    44     3     1    1
    45     3    15    1
    46     2     1    1
    47     2    60    1
    48     1     4    1
    49    29    15   ar
    50    29     9   ar
    51    66    60   ar
    52    66    58   ar
    53    10     9    1
    54    15    28   ar
    55     9    14   ar
    56    60    50   ar
    57     6     4    1
    58     5     4    1
    59     4     7    1
    60    59    58    1
    61    58    65   ar
    62    74    71    1
    63    28    71    1
    64    28    39   ar
    65    72    71    1
    66    57    54    1
    67    14    39   ar
    68    14    18    1
    69    50    54    1
    70    50    44   ar
    71    56    54    1
    72    71    73    1
    73    54    55    1
    74    39    40    1
    75    65    44   ar
    76    65    75    1
    77    19    18    1
    78    21    18    1
    79    18    20    1
    80    44    45    1
    81    78    75    1
    82    75    76    1
    83    75    77    1
