@<TRIPOS>MOLECULE
CSD_code = BOVSOU | q = -1 | S = 0 | Stoichiometry = C7H12CoN4O7(1-) | MND = 6
 31 33 0 0 0
SMALL
GASTEIGER

@<TRIPOS>ATOM
      1 CO          6.5663    1.2774    7.0900 Co.oh   1  UNL1        0.0000
      2 O           4.7615    1.2900    7.6211 O.3     1  UNL1        0.0000
      3 O           6.4531   -0.0811    5.7387 O.3     1  UNL1        0.0000
      4 O           3.3996    1.9980    9.2108 O.2     1  UNL1        0.0000
      5 O           8.2936    3.2306   10.0644 O.2     1  UNL1        0.0000
      6 O           6.3876   -2.2609    5.3324 O.2     1  UNL1        0.0000
      7 O           7.2863    2.6905    5.1318 O.2     1  UNL1        0.0000
      8 O           5.4460    3.3444    6.0189 O.2     1  UNL1        0.0000
      9 N           6.8317    2.4395    8.4927 N.am    1  UNL1        0.0000
     10 N           8.6065    1.3185    6.9909 N.4     1  UNL1        0.0000
     11 N           6.6645   -0.5031    8.3578 N.4     1  UNL1        0.0000
     12 N           6.3877    2.5930    5.9602 N.pl3   1  UNL1        0.0000
     13 C           4.4746    2.0198    8.6378 C.2     1  UNL1        0.0000
     14 C           5.6241    2.9292    9.1203 C.3     1  UNL1        0.0000
     15 C           8.0197    2.6191    9.0343 C.2     1  UNL1        0.0000
     16 C           9.1390    1.9103    8.2264 C.3     1  UNL1        0.0000
     17 C           6.2853   -1.2944    6.0689 C.2     1  UNL1        0.0000
     18 C           5.9171   -1.5017    7.5769 C.3     1  UNL1        0.0000
     19 C           6.1632   -2.9290    8.0457 C.3     1  UNL1        0.0000
     20 H           5.7114    2.9161   10.2116 H       1  UNL1        0.0000
     21 H           5.4036    3.9550    8.8011 H       1  UNL1        0.0000
     22 H           9.5543    1.1331    8.8749 H       1  UNL1        0.0000
     23 H           9.9345    2.6353    8.0244 H       1  UNL1        0.0000
     24 H           9.0593    0.4349    6.7712 H       1  UNL1        0.0000
     25 H           8.7770    1.9348    6.1931 H       1  UNL1        0.0000
     26 H           7.5954   -0.8676    8.5543 H       1  UNL1        0.0000
     27 H           6.2060   -0.3438    9.2522 H       1  UNL1        0.0000
     28 H           4.8542   -1.2495    7.6498 H       1  UNL1        0.0000
     29 H           5.6729   -3.6146    7.3607 H       1  UNL1        0.0000
     30 H           7.2301   -3.1535    8.0339 H       1  UNL1        0.0000
     31 H           5.7768   -3.0881    9.0524 H       1  UNL1        0.0000
@<TRIPOS>BOND
     1     7    12    2
     2     6    17    2
     3     3    17    1
     4     3     1    1
     5    12     8    2
     6    12     1    1
     7    17    18    1
     8    25    10    1
     9    24    10    1
    10    10     1    1
    11    10    16    1
    12     1     2    1
    13     1    11    1
    14     1     9    1
    15    29    19    1
    16    18    28    1
    17    18    19    1
    18    18    11    1
    19     2    13    1
    20    23    16    1
    21    30    19    1
    22    19    31    1
    23    16    22    1
    24    16    15    1
    25    11    26    1
    26    11    27    1
    27     9    15   am
    28     9    14    1
    29    13    14    1
    30    13     4    2
    31    21    14    1
    32    15     5    2
    33    14    20    1
