@<TRIPOS>MOLECULE
CSD_code = BOXDAU | q = -1 | S = 0 | Stoichiometry = C62H70CoN6O8(1-) | MND = 6
 147 158 0 0 0
SMALL
GASTEIGER

@<TRIPOS>ATOM
      1 CO          6.3952    4.2287   10.5215 Co.oh   1  UNL1        0.0000
      2 C           6.5802    6.8821   12.0442 C.3     1  UNL1        0.0000
      3 H           5.9138    7.7539   12.1158 H       1  UNL1        0.0000
      4 H           7.4017    7.1185   11.3593 H       1  UNL1        0.0000
      5 N           5.7959    5.7909   11.4926 N.am    1  UNL1        0.0000
      6 C           4.4747    5.9590   11.5157 C.2     1  UNL1        0.0000
      7 O           3.8460    6.8766   12.0549 O.2     1  UNL1        0.0000
      8 C           3.8038    4.8808   10.7387 C.3     1  UNL1        0.0000
      9 N           4.6756    4.0654   10.1550 N.pl3   1  UNL1        0.0000
     10 C           4.2728    3.0485    9.4013 C.2     1  UNL1        0.0000
     11 C           2.9238    2.8217    9.1693 C.2     1  UNL1        0.0000
     12 H           2.6314    1.9939    8.5416 H       1  UNL1        0.0000
     13 C           1.9979    3.6725    9.7562 C.2     1  UNL1        0.0000
     14 H           0.9404    3.5207    9.5947 H       1  UNL1        0.0000
     15 C           2.4393    4.7166   10.5551 C.2     1  UNL1        0.0000
     16 H           1.7573    5.4008   11.0326 H       1  UNL1        0.0000
     17 C           5.4224    2.2733    8.8414 C.2     1  UNL1        0.0000
     18 O           5.2714    1.3537    8.0332 O.2     1  UNL1        0.0000
     19 N           6.5723    2.7488    9.3233 N.am    1  UNL1        0.0000
     20 C           7.7838    2.2313    8.7231 C.3     1  UNL1        0.0000
     21 H           8.2973    3.0418    8.1889 H       1  UNL1        0.0000
     22 H           7.4754    1.4745    7.9854 H       1  UNL1        0.0000
     23 C           8.7340    1.5999    9.7001 C.ar    1  UNL1        0.0000
     24 C          10.0829    1.9126    9.6809 C.ar    1  UNL1        0.0000
     25 H          10.4480    2.6621    8.9922 H       1  UNL1        0.0000
     26 C          10.9828    1.2746   10.5197 C.ar    1  UNL1        0.0000
     27 H          12.0270    1.5446   10.4690 H       1  UNL1        0.0000
     28 C          10.5330    0.3021   11.4016 C.ar    1  UNL1        0.0000
     29 C           9.1697    0.0111   11.4553 C.ar    1  UNL1        0.0000
     30 H           8.8302   -0.7294   12.1622 H       1  UNL1        0.0000
     31 C           8.2876    0.6483   10.6121 C.ar    1  UNL1        0.0000
     32 H           7.2374    0.4024   10.6424 H       1  UNL1        0.0000
     33 O          11.3348   -0.4347   12.2298 O.3     1  UNL1        0.0000
     34 C          12.7312   -0.2703   12.1428 C.3     1  UNL1        0.0000
     35 H          13.0159    0.7403   12.4674 H       1  UNL1        0.0000
     36 H          13.0678   -0.4075   11.1044 H       1  UNL1        0.0000
     37 C          13.3808   -1.3255   13.0366 C.3     1  UNL1        0.0000
     38 H          14.4653   -1.2742   12.9187 H       1  UNL1        0.0000
     39 H          13.0427   -2.3048   12.6935 H       1  UNL1        0.0000
     40 C          12.9908   -1.1425   14.5034 C.3     1  UNL1        0.0000
     41 H          11.9206   -0.9416   14.5345 H       1  UNL1        0.0000
     42 H          13.1697   -2.0733   15.0464 H       1  UNL1        0.0000
     43 C          13.7564   -0.0108   15.1902 C.3     1  UNL1        0.0000
     44 H          13.8893    0.8226   14.4981 H       1  UNL1        0.0000
     45 H          14.7528   -0.3683   15.4643 H       1  UNL1        0.0000
     46 C          13.0294    0.5036   16.4339 C.3     1  UNL1        0.0000
     47 H          13.7307    1.0598   17.0620 H       1  UNL1        0.0000
     48 H          12.6677   -0.3460   17.0179 H       1  UNL1        0.0000
     49 C          11.8590    1.4170   16.0743 C.3     1  UNL1        0.0000
     50 H          12.2455    2.3060   15.5691 H       1  UNL1        0.0000
     51 H          11.1877    0.9119   15.3785 H       1  UNL1        0.0000
     52 C          11.0608    1.8489   17.3005 C.3     1  UNL1        0.0000
     53 H          11.7271    2.3459   18.0121 H       1  UNL1        0.0000
     54 H          10.6501    0.9654   17.7960 H       1  UNL1        0.0000
     55 C           9.9263    2.7946   16.9202 C.3     1  UNL1        0.0000
     56 H          10.3404    3.6633   16.4049 H       1  UNL1        0.0000
     57 H           9.2428    2.2975   16.2281 H       1  UNL1        0.0000
     58 C           9.1503    3.2864   18.1397 C.3     1  UNL1        0.0000
     59 H           9.8291    3.7995   18.8248 H       1  UNL1        0.0000
     60 H           8.6974    2.4450   18.6681 H       1  UNL1        0.0000
     61 C           8.0452    4.2543   17.7195 C.3     1  UNL1        0.0000
     62 H           7.3688    3.7456   17.0248 H       1  UNL1        0.0000
     63 H           7.4730    4.5879   18.5976 H       1  UNL1        0.0000
     64 O           8.6405    5.3776   17.0927 O.3     1  UNL1        0.0000
     65 C           8.0988    5.7841   15.9014 C.ar    1  UNL1        0.0000
     66 C           8.9737    6.2180   14.9113 C.ar    1  UNL1        0.0000
     67 H          10.0327    6.2300   15.1214 H       1  UNL1        0.0000
     68 C           8.4898    6.5970   13.6748 C.ar    1  UNL1        0.0000
     69 H           9.1804    6.9091   12.9036 H       1  UNL1        0.0000
     70 C           7.1292    6.5625   13.4058 C.ar    1  UNL1        0.0000
     71 C           6.2561    6.2058   14.4242 C.ar    1  UNL1        0.0000
     72 H           5.1948    6.2405   14.2305 H       1  UNL1        0.0000
     73 C           6.7298    5.8103   15.6598 C.ar    1  UNL1        0.0000
     74 H           6.0369    5.5207   16.4370 H       1  UNL1        0.0000
     75 C           6.1712    5.7108    7.9022 C.3     1  UNL1        0.0000
     76 H           5.7447    4.8098    7.4436 H       1  UNL1        0.0000
     77 H           6.8667    6.1728    7.1855 H       1  UNL1        0.0000
     78 N           6.9447    5.3376    9.0677 N.am    1  UNL1        0.0000
     79 C           8.2289    5.6967    9.0800 C.2     1  UNL1        0.0000
     80 O           8.8268    6.3756    8.2412 O.2     1  UNL1        0.0000
     81 C           8.9062    5.1257   10.2856 C.3     1  UNL1        0.0000
     82 N           8.0838    4.3776   11.0125 N.pl3   1  UNL1        0.0000
     83 C           8.4949    3.7769   12.1239 C.2     1  UNL1        0.0000
     84 C           9.8124    3.8764   12.5451 C.2     1  UNL1        0.0000
     85 H          10.1129    3.3612   13.4435 H       1  UNL1        0.0000
     86 C          10.6941    4.6330   11.7876 C.2     1  UNL1        0.0000
     87 H          11.7290    4.7259   12.0854 H       1  UNL1        0.0000
     88 C          10.2380    5.2756   10.6446 C.2     1  UNL1        0.0000
     89 H          10.8838    5.8797   10.0258 H       1  UNL1        0.0000
     90 C           7.4264    2.9494   12.7510 C.2     1  UNL1        0.0000
     91 O           7.6167    2.2781   13.7681 O.2     1  UNL1        0.0000
     92 N           6.3094    3.0176   12.0229 N.am    1  UNL1        0.0000
     93 C           5.2908    2.0385   12.3413 C.3     1  UNL1        0.0000
     94 H           5.7625    1.2935   13.0019 H       1  UNL1        0.0000
     95 H           4.9753    1.5312   11.4211 H       1  UNL1        0.0000
     96 C           4.0844    2.5875   13.0501 C.ar    1  UNL1        0.0000
     97 C           4.2416    3.5314   14.0514 C.ar    1  UNL1        0.0000
     98 H           5.2356    3.8840   14.2760 H       1  UNL1        0.0000
     99 C           3.1586    4.0102   14.7656 C.ar    1  UNL1        0.0000
    100 H           3.3215    4.7548   15.5293 H       1  UNL1        0.0000
    101 C           1.8872    3.5143   14.5067 C.ar    1  UNL1        0.0000
    102 C           1.7196    2.5735   13.4920 C.ar    1  UNL1        0.0000
    103 H           0.7249    2.2045   13.2922 H       1  UNL1        0.0000
    104 C           2.8055    2.1229   12.7699 C.ar    1  UNL1        0.0000
    105 H           2.6592    1.3937   11.9850 H       1  UNL1        0.0000
    106 O           0.7549    3.8553   15.1989 O.3     1  UNL1        0.0000
    107 C           0.8033    4.9863   16.0399 C.3     1  UNL1        0.0000
    108 H           1.0790    5.8742   15.4552 H       1  UNL1        0.0000
    109 H           1.5554    4.8479   16.8305 H       1  UNL1        0.0000
    110 C          -0.5622    5.1742   16.6987 C.3     1  UNL1        0.0000
    111 H          -0.5289    6.1035   17.2724 H       1  UNL1        0.0000
    112 H          -0.7238    4.3503   17.3976 H       1  UNL1        0.0000
    113 C          -1.7379    5.2088   15.7203 C.3     1  UNL1        0.0000
    114 H          -1.8082    4.2366   15.2316 H       1  UNL1        0.0000
    115 H          -2.6479    5.3506   16.3091 H       1  UNL1        0.0000
    116 C          -1.6354    6.3037   14.6506 C.3     1  UNL1        0.0000
    117 H          -0.9726    7.0956   15.0014 H       1  UNL1        0.0000
    118 H          -2.6199    6.7526   14.4925 H       1  UNL1        0.0000
    119 C          -1.1363    5.7570   13.3135 C.3     1  UNL1        0.0000
    120 H          -1.8695    5.0321   12.9479 H       1  UNL1        0.0000
    121 H          -0.1975    5.2242   13.4557 H       1  UNL1        0.0000
    122 C          -0.9396    6.8382   12.2530 C.3     1  UNL1        0.0000
    123 H          -0.8365    6.3534   11.2784 H       1  UNL1        0.0000
    124 H          -1.8310    7.4716   12.2088 H       1  UNL1        0.0000
    125 C           0.2928    7.7102   12.4864 C.3     1  UNL1        0.0000
    126 H           1.1836    7.0845   12.5734 H       1  UNL1        0.0000
    127 H           0.1891    8.2703   13.4183 H       1  UNL1        0.0000
    128 C           0.4921    8.6855   11.3315 C.3     1  UNL1        0.0000
    129 H          -0.3385    9.3982   11.2994 H       1  UNL1        0.0000
    130 H           0.4842    8.1283   10.3922 H       1  UNL1        0.0000
    131 C           1.8166    9.4381   11.4215 C.3     1  UNL1        0.0000
    132 H           1.8202   10.1102   12.2822 H       1  UNL1        0.0000
    133 H           2.6266    8.7155   11.5442 H       1  UNL1        0.0000
    134 C           2.0450   10.2564   10.1500 C.3     1  UNL1        0.0000
    135 H           1.2089   10.9455    9.9874 H       1  UNL1        0.0000
    136 H           2.9653   10.8487   10.2274 H       1  UNL1        0.0000
    137 O           2.0503    9.4442    8.9938 O.3     1  UNL1        0.0000
    138 C           3.0792    8.5521    8.8240 C.ar    1  UNL1        0.0000
    139 C           2.7812    7.4005    8.1004 C.ar    1  UNL1        0.0000
    140 H           1.7649    7.2485    7.7684 H       1  UNL1        0.0000
    141 C           3.7663    6.4762    7.8148 C.ar    1  UNL1        0.0000
    142 H           3.5149    5.5801    7.2636 H       1  UNL1        0.0000
    143 C           5.0743    6.6862    8.2273 C.ar    1  UNL1        0.0000
    144 C           5.3650    7.8368    8.9466 C.ar    1  UNL1        0.0000
    145 H           6.3826    8.0133    9.2604 H       1  UNL1        0.0000
    146 C           4.3837    8.7565    9.2584 C.ar    1  UNL1        0.0000
    147 H           4.6467    9.6327    9.8309 H       1  UNL1        0.0000
@<TRIPOS>BOND
     1    77    75    1
     2   142   141    1
     3    76    75    1
     4   140   139    1
     5   141   139   ar
     6   141   143   ar
     7    75   143    1
     8    75    78    1
     9    22    20    1
    10    18    17    2
    11   139   138   ar
    12    21    20    1
    13   143   144   ar
    14    80    79    2
    15    12    11    1
    16    20    19    1
    17    20    23    1
    18   138   137    1
    19   138   146   ar
    20    17    19   am
    21    17    10    1
    22   144   146   ar
    23   144   145    1
    24    25    24    1
    25   137   134    1
    26    78    79   am
    27    78     1    1
    28    79    81    1
    29    11    10    2
    30    11    13    1
    31   146   147    1
    32    19     1    1
    33    10     9    1
    34    14    13    1
    35    24    23   ar
    36    24    26   ar
    37    23    31   ar
    38    13    15    2
    39   135   134    1
    40    89    88    1
    41   134   136    1
    42   134   131    1
    43     9     1    1
    44     9     8    1
    45    81    88    1
    46    81    82    1
    47   130   128    1
    48    27    26    1
    49    26    28   ar
    50     1    82    1
    51     1     5    1
    52     1    92    1
    53    15     8    1
    54    15    16    1
    55    31    32    1
    56    31    29   ar
    57    88    86    2
    58     8     6    1
    59    82    83    1
    60    36    34    1
    61   123   122    1
    62   129   128    1
    63   128   131    1
    64   128   125    1
    65     4     2    1
    66    28    29   ar
    67    28    33    1
    68    95    93    1
    69   131   133    1
    70   131   132    1
    71    29    30    1
    72     5     6   am
    73     5     2    1
    74     6     7    2
    75    86    87    1
    76    86    84    1
    77   105   104    1
    78    92    93    1
    79    92    90   am
    80     2     3    1
    81     2    70    1
    82    83    84    2
    83    83    90    1
    84    34    33    1
    85    34    35    1
    86    34    37    1
    87   124   122    1
    88   122   125    1
    89   122   119    1
    90    93    94    1
    91    93    96    1
    92   125   126    1
    93   125   127    1
    94    84    85    1
    95    39    37    1
    96    90    91    2
    97   104    96   ar
    98   104   102   ar
    99    69    68    1
   100    38    37    1
   101   120   119    1
   102    37    40    1
   103    96    97   ar
   104   103   102    1
   105   119   121    1
   106   119   116    1
   107    70    68   ar
   108    70    71   ar
   109   102   101   ar
   110    68    66   ar
   111    97    98    1
   112    97    99   ar
   113    72    71    1
   114    71    73   ar
   115   118   116    1
   116    44    43    1
   117    40    41    1
   118    40    42    1
   119    40    43    1
   120   101    99   ar
   121   101   106    1
   122   116   117    1
   123   116   113    1
   124    99   100    1
   125    66    67    1
   126    66    65   ar
   127    43    45    1
   128    43    46    1
   129   106   107    1
   130   114   113    1
   131    51    49    1
   132   108   107    1
   133    50    49    1
   134    73    65   ar
   135    73    74    1
   136   113   115    1
   137   113   110    1
   138    65    64    1
   139   107   110    1
   140   107   109    1
   141    49    46    1
   142    49    52    1
   143    57    55    1
   144    56    55    1
   145    46    48    1
   146    46    47    1
   147   110   111    1
   148   110   112    1
   149    55    52    1
   150    55    58    1
   151    62    61    1
   152    64    61    1
   153    52    54    1
   154    52    53    1
   155    61    58    1
   156    61    63    1
   157    58    60    1
   158    58    59    1
