@<TRIPOS>MOLECULE
CSD_code = BOYBUM | q = 0 | S = 0 | Stoichiometry = C18H15CoIN2O2P | MND = 4
 40 40 0 0 0
SMALL
GASTEIGER

@<TRIPOS>ATOM
      1 CO          5.1187    1.0374   -4.4409 Co.oh   1  UNL1        0.0000
      2 I           3.1155   -0.5136   -3.9914 I       2  UNL2        0.0000
      3 N           5.8998    0.9433   -5.9059 N.3     1  UNL1        0.0000
      4 N           4.4986    2.4352   -3.9850 N.2     1  UNL1        0.0000
      5 O           6.1449   -0.1685   -5.5164 O.3     1  UNL1        0.0000
      6 O           4.0220    3.1777   -3.2083 O.2     1  UNL1        0.0000
      7 P           6.3231    0.5971   -2.4647 P.3     3  UNL3        0.0000
      8 C           7.4894   -0.7555   -2.7889 C.ar    3  UNL3        0.0000
      9 C           8.8657   -0.5619   -2.8271 C.ar    3  UNL3        0.0000
     10 C           9.6965   -1.6232   -3.1411 C.ar    3  UNL3        0.0000
     11 C           9.1613   -2.8683   -3.4274 C.ar    3  UNL3        0.0000
     12 C           7.7881   -3.0594   -3.4016 C.ar    3  UNL3        0.0000
     13 C           6.9503   -2.0067   -3.0903 C.ar    3  UNL3        0.0000
     14 C           7.3730    1.9498   -1.8460 C.ar    3  UNL3        0.0000
     15 C           7.8046    2.9173   -2.7487 C.ar    3  UNL3        0.0000
     16 C           8.6197    3.9498   -2.3229 C.ar    3  UNL3        0.0000
     17 C           9.0002    4.0240   -0.9927 C.ar    3  UNL3        0.0000
     18 C           8.5681    3.0647   -0.0906 C.ar    3  UNL3        0.0000
     19 C           7.7560    2.0273   -0.5110 C.ar    3  UNL3        0.0000
     20 C           5.4213    0.0729   -0.9759 C.ar    3  UNL3        0.0000
     21 C           4.2873    0.8015   -0.6243 C.ar    3  UNL3        0.0000
     22 C           3.5618    0.4517    0.4983 C.ar    3  UNL3        0.0000
     23 C           3.9636   -0.6230    1.2748 C.ar    3  UNL3        0.0000
     24 C           5.0944   -1.3449    0.9303 C.ar    3  UNL3        0.0000
     25 C           5.8253   -1.0040   -0.1936 C.ar    3  UNL3        0.0000
     26 H           9.2839    0.4114   -2.6100 H       3  UNL3        0.0000
     27 H          10.7658   -1.4740   -3.1670 H       3  UNL3        0.0000
     28 H           9.8151   -3.6903   -3.6778 H       3  UNL3        0.0000
     29 H           7.3695   -4.0273   -3.6325 H       3  UNL3        0.0000
     30 H           5.8774   -2.1489   -3.0777 H       3  UNL3        0.0000
     31 H           7.4961    2.8569   -3.7874 H       3  UNL3        0.0000
     32 H           8.9527    4.6984   -3.0261 H       3  UNL3        0.0000
     33 H           9.6311    4.8334   -0.6576 H       3  UNL3        0.0000
     34 H           8.8635    3.1256    0.9463 H       3  UNL3        0.0000
     35 H           7.4162    1.2799    0.1919 H       3  UNL3        0.0000
     36 H           3.9683    1.6364   -1.2330 H       3  UNL3        0.0000
     37 H           2.6775    1.0118    0.7608 H       3  UNL3        0.0000
     38 H           3.3919   -0.9019    2.1470 H       3  UNL3        0.0000
     39 H           5.4081   -2.1825    1.5355 H       3  UNL3        0.0000
     40 H           6.7036   -1.5741   -0.4625 H       3  UNL3        0.0000
@<TRIPOS>BOND
     1     3     5    1
     2     3     1    1
     3     1     4    2
     4     4     6    1
     5    31    15    1
     6    28    11    1
     7    29    12    1
     8    11    12   ar
     9    11    10   ar
    10    12    13   ar
    11    27    10    1
    12    10     9   ar
    13    13    30    1
    14    13     8   ar
    15    32    16    1
    16     9     8   ar
    17     9    26    1
    18     8     7    1
    19    15    16   ar
    20    15    14   ar
    21     7    14    1
    22     7    20    1
    23    16    17   ar
    24    14    19   ar
    25    36    21    1
    26    17    33    1
    27    17    18   ar
    28    20    21   ar
    29    20    25   ar
    30    21    22   ar
    31    19    18   ar
    32    19    35    1
    33    40    25    1
    34    25    24   ar
    35    18    34    1
    36    22    37    1
    37    22    23   ar
    38    24    23   ar
    39    24    39    1
    40    23    38    1
