@<TRIPOS>MOLECULE
CSD_code = BURTUD | q = 1 | S = 0 | Stoichiometry = C22H28CoN6O2(1+) | MND = 6
 59 64 0 0 0
SMALL
GASTEIGER

@<TRIPOS>ATOM
      1 CO         -0.2980    2.9216    3.3158 Co.oh   1  UNL1        0.0000
      2 O          -2.2123    2.9156    1.4193 O.3     1  UNL1        0.0000
      3 O          -1.5740    4.1485    5.3473 O.3     1  UNL1        0.0000
      4 N           1.4185    3.4374    4.3987 N.pl3   1  UNL1        0.0000
      5 N          -0.8710    1.6764    4.6558 N.pl3   1  UNL1        0.0000
      6 N          -1.9288    2.5108    2.5614 N.3     1  UNL1        0.0000
      7 N           0.5513    1.4232    2.1244 N.pl3   1  UNL1        0.0000
      8 N           0.0078    4.2686    1.9869 N.pl3   1  UNL1        0.0000
      9 N          -1.1782    4.2933    4.1763 N.3     1  UNL1        0.0000
     10 C           1.8975    4.6833    4.3266 C.3     1  UNL1        0.0000
     11 C           2.8867    5.1753    5.1549 C.2     1  UNL1        0.0000
     12 C           3.4185    4.3399    6.1245 C.2     1  UNL1        0.0000
     13 C           2.9275    3.0513    6.2062 C.2     1  UNL1        0.0000
     14 C           1.9296    2.6283    5.3323 C.2     1  UNL1        0.0000
     15 C           1.3856    1.2389    5.4536 C.3     1  UNL1        0.0000
     16 C          -0.1075    1.2610    5.7988 C.3     1  UNL1        0.0000
     17 C          -2.1395    1.4113    4.5622 C.2     1  UNL1        0.0000
     18 C          -2.7425    1.8310    3.3351 C.2     1  UNL1        0.0000
     19 C          -2.9145    0.7015    5.6179 C.3     1  UNL1        0.0000
     20 C          -4.1376    1.5066    2.9049 C.3     1  UNL1        0.0000
     21 C           0.0821    0.1736    2.1974 C.3     1  UNL1        0.0000
     22 C           0.4276   -0.8297    1.3138 C.2     1  UNL1        0.0000
     23 C           1.3070   -0.5350    0.2840 C.2     1  UNL1        0.0000
     24 C           1.7946    0.7548    0.2008 C.2     1  UNL1        0.0000
     25 C           1.4005    1.7112    1.1327 C.2     1  UNL1        0.0000
     26 C           1.9135    3.1123    1.0114 C.3     1  UNL1        0.0000
     27 C           0.7653    4.1004    0.7786 C.3     1  UNL1        0.0000
     28 C          -0.7497    5.3089    2.1661 C.2     1  UNL1        0.0000
     29 C          -1.3860    5.3639    3.4458 C.2     1  UNL1        0.0000
     30 C          -0.9296    6.3837    1.1505 C.3     1  UNL1        0.0000
     31 C          -2.1740    6.5228    3.9679 C.3     1  UNL1        0.0000
     32 H           1.4747    5.3261    3.5690 H       1  UNL1        0.0000
     33 H           3.2260    6.1920    5.0433 H       1  UNL1        0.0000
     34 H           4.1878    4.6844    6.7974 H       1  UNL1        0.0000
     35 H           3.3089    2.3664    6.9468 H       1  UNL1        0.0000
     36 H           1.5224    0.7060    4.5100 H       1  UNL1        0.0000
     37 H           1.9250    0.7028    6.2337 H       1  UNL1        0.0000
     38 H          -0.4104    0.2571    6.1173 H       1  UNL1        0.0000
     39 H          -0.2877    1.9536    6.6306 H       1  UNL1        0.0000
     40 H          -3.9648    0.6412    5.3563 H       1  UNL1        0.0000
     41 H          -2.5333   -0.3085    5.7716 H       1  UNL1        0.0000
     42 H          -2.8141    1.2426    6.5582 H       1  UNL1        0.0000
     43 H          -4.8632    1.9951    3.5537 H       1  UNL1        0.0000
     44 H          -4.2792    1.8704    1.8895 H       1  UNL1        0.0000
     45 H          -4.3175    0.4332    2.9248 H       1  UNL1        0.0000
     46 H          -0.6038   -0.0443    3.0022 H       1  UNL1        0.0000
     47 H           0.0105   -1.8165    1.4300 H       1  UNL1        0.0000
     48 H           1.5988   -1.2860   -0.4330 H       1  UNL1        0.0000
     49 H           2.4790    1.0312   -0.5855 H       1  UNL1        0.0000
     50 H           2.4405    3.3921    1.9264 H       1  UNL1        0.0000
     51 H           2.6126    3.1738    0.1782 H       1  UNL1        0.0000
     52 H           1.1855    5.0589    0.4536 H       1  UNL1        0.0000
     53 H           0.1074    3.7270   -0.0162 H       1  UNL1        0.0000
     54 H          -1.6531    7.1186    1.4849 H       1  UNL1        0.0000
     55 H           0.0140    6.8900    0.9446 H       1  UNL1        0.0000
     56 H          -1.2802    5.9397    0.2195 H       1  UNL1        0.0000
     57 H          -2.4419    6.3203    5.0025 H       1  UNL1        0.0000
     58 H          -1.5965    7.4446    3.9253 H       1  UNL1        0.0000
     59 H          -3.0886    6.6560    3.3916 H       1  UNL1        0.0000
@<TRIPOS>BOND
     1    49    24    1
     2    48    23    1
     3    53    27    1
     4    51    26    1
     5    24    23    1
     6    24    25    2
     7    56    30    1
     8    23    22    2
     9    52    27    1
    10    27    26    1
    11    27     8    1
    12    55    30    1
    13    26    25    1
    14    26    50    1
    15    25     7    1
    16    30    54    1
    17    30    28    1
    18    22    47    1
    19    22    21    1
    20     2     6    1
    21    44    20    1
    22     8    28    1
    23     8     1    1
    24     7    21    1
    25     7     1    1
    26    28    29    2
    27    21    46    1
    28     6     1    1
    29     6    18    1
    30    20    45    1
    31    20    18    1
    32    20    43    1
    33     1     9    1
    34     1     4    1
    35     1     5    1
    36    18    17    2
    37    59    31    1
    38    29    31    1
    39    29     9    1
    40    32    10    1
    41    58    31    1
    42    31    57    1
    43     9     3    1
    44    10     4    1
    45    10    11    1
    46     4    14    1
    47    36    15    1
    48    17     5    1
    49    17    19    1
    50     5    16    1
    51    33    11    1
    52    11    12    2
    53    14    15    1
    54    14    13    2
    55    40    19    1
    56    15    16    1
    57    15    37    1
    58    19    41    1
    59    19    42    1
    60    16    38    1
    61    16    39    1
    62    12    13    1
    63    12    34    1
    64    13    35    1
