@<TRIPOS>MOLECULE
CSD_code = CEDGEX | q = -1 | S = 0 | Stoichiometry = C10H14CoN2O8(1-) | MND = 6
 35 38 0 0 0
SMALL
GASTEIGER

@<TRIPOS>ATOM
      1 CO          9.9832    0.8039    2.9203 Co.oh   1  UNL1        0.0000
      2 O           8.7117    0.2713    1.6190 O.3     1  UNL1        0.0000
      3 O          11.4415    0.0879    2.0047 O.3     1  UNL1        0.0000
      4 O          11.0311    1.7217    4.2044 O.3     1  UNL1        0.0000
      5 O           9.8347   -0.7508    3.9387 O.3     1  UNL1        0.0000
      6 N          10.3607    2.3752    1.6120 N.4     1  UNL1        0.0000
      7 N           8.3849    1.3505    4.1309 N.4     1  UNL1        0.0000
      8 C           9.9240    3.7344    1.9252 C.3     1  UNL1        0.0000
      9 C           9.7732    1.9484    0.3259 C.3     1  UNL1        0.0000
     10 C           8.5705    1.0028    0.5888 C.2     1  UNL1        0.0000
     11 O           7.6076    1.0135   -0.1576 O.2     1  UNL1        0.0000
     12 C          11.8268    2.3603    1.5145 C.3     1  UNL1        0.0000
     13 C          12.2581    0.8716    1.4271 C.2     1  UNL1        0.0000
     14 O          13.2635    0.5544    0.8212 O.2     1  UNL1        0.0000
     15 C           7.4408    2.3823    3.7057 C.3     1  UNL1        0.0000
     16 C           8.9964    1.7363    5.4188 C.3     1  UNL1        0.0000
     17 C          10.4316    2.2771    5.1781 C.2     1  UNL1        0.0000
     18 O          10.8811    3.1583    5.8896 O.2     1  UNL1        0.0000
     19 C           7.6587    0.0828    4.2887 C.3     1  UNL1        0.0000
     20 C           8.7253   -1.0262    4.4938 C.2     1  UNL1        0.0000
     21 O           8.4708   -2.0133    5.1568 O.2     1  UNL1        0.0000
     22 H           9.4741    2.8032   -0.2903 H       1  UNL1        0.0000
     23 H          10.4977    1.3501   -0.2336 H       1  UNL1        0.0000
     24 H          12.2575    2.7713    2.4295 H       1  UNL1        0.0000
     25 H          12.1806    2.9322    0.6475 H       1  UNL1        0.0000
     26 H           9.1183    0.8543    6.0527 H       1  UNL1        0.0000
     27 H           8.3874    2.4711    5.9552 H       1  UNL1        0.0000
     28 H           6.9538    0.1219    5.1286 H       1  UNL1        0.0000
     29 H           7.1223   -0.1476    3.3662 H       1  UNL1        0.0000
     30 H          10.3869    4.4510    1.2343 H       1  UNL1        0.0000
     31 H          10.2229    3.9928    2.9409 H       1  UNL1        0.0000
     32 H           8.8431    3.8142    1.8261 H       1  UNL1        0.0000
     33 H           7.1087    2.1810    2.6874 H       1  UNL1        0.0000
     34 H           6.5615    2.3869    4.3627 H       1  UNL1        0.0000
     35 H           7.9088    3.3636    3.7547 H       1  UNL1        0.0000
@<TRIPOS>BOND
     1    22     9    1
     2    23     9    1
     3    11    10    2
     4     9    10    1
     5     9     6    1
     6    10     2    1
     7    25    12    1
     8    14    13    2
     9    30     8    1
    10    13    12    1
    11    13     3    1
    12    12     6    1
    13    12    24    1
    14     6     8    1
    15     6     1    1
    16     2     1    1
    17    32     8    1
    18     8    31    1
    19     3     1    1
    20    33    15    1
    21     1     5    1
    22     1     7    1
    23     1     4    1
    24    29    19    1
    25    15    35    1
    26    15     7    1
    27    15    34    1
    28     5    20    1
    29     7    19    1
    30     7    16    1
    31     4    17    1
    32    19    20    1
    33    19    28    1
    34    20    21    2
    35    17    16    1
    36    17    18    2
    37    16    27    1
    38    16    26    1
