@<TRIPOS>MOLECULE
CSD_code = CHXPCO | q = 0 | S = 0 | Stoichiometry = C16H12CoN3O4 | MND = 6
 36 41 0 0 0
SMALL
GASTEIGER

@<TRIPOS>ATOM
      1 CO         -0.0325    2.1540    1.4476 Co.oh   1  UNL1        0.0000
      2 C          -2.1504    1.2812    1.5485 C.2     1  UNL1        0.0000
      3 O          -1.8117    2.5222    1.8368 O.3     1  UNL1        0.0000
      4 O          -3.2625    0.8181    1.5987 O.2     1  UNL1        0.0000
      5 O          -1.0564    0.6340    1.1942 O.3     1  UNL1        0.0000
      6 O           1.6117    1.4287    0.9801 O.3     1  UNL1        0.0000
      7 H           1.5080    0.5028    0.7474 H       1  UNL1        0.0000
      8 N           0.6892    3.7251    1.7638 N.pl3   1  UNL1        0.0000
      9 C           1.7759    6.1826    2.2656 C.2     1  UNL1        0.0000
     10 H           2.2068    7.1517    2.4631 H       1  UNL1        0.0000
     11 N           0.3243    1.8234    3.2498 N.pl3   1  UNL1        0.0000
     12 C           1.1289    4.0025    3.0011 C.2     1  UNL1        0.0000
     13 C           1.6857    5.2440    3.2848 C.2     1  UNL1        0.0000
     14 H           2.0422    5.4747    4.2754 H       1  UNL1        0.0000
     15 C           0.9121    2.8671    3.8826 C.2     1  UNL1        0.0000
     16 C           0.0612    0.7166    3.9344 C.2     1  UNL1        0.0000
     17 H          -0.4114   -0.0833    3.3796 H       1  UNL1        0.0000
     18 C           1.2415    2.8039    5.2329 C.2     1  UNL1        0.0000
     19 H           1.7075    3.6499    5.7122 H       1  UNL1        0.0000
     20 C           0.3611    0.5883    5.2793 C.2     1  UNL1        0.0000
     21 H           0.1257   -0.3282    5.7957 H       1  UNL1        0.0000
     22 C           0.9617    1.6504    5.9422 C.2     1  UNL1        0.0000
     23 H           1.2059    1.5790    6.9910 H       1  UNL1        0.0000
     24 N          -0.2516    2.8008   -0.2902 N.pl3   1  UNL1        0.0000
     25 C           0.7628    4.6206    0.7669 C.2     1  UNL1        0.0000
     26 C           1.3102    5.8779    0.9935 C.2     1  UNL1        0.0000
     27 H           1.3736    6.6027    0.1984 H       1  UNL1        0.0000
     28 C           0.2025    4.0664   -0.4548 C.3     1  UNL1        0.0000
     29 C          -0.7935    2.1682   -1.3239 C.2     1  UNL1        0.0000
     30 H          -1.1415    1.1613   -1.1349 H       1  UNL1        0.0000
     31 C           0.1080    4.7169   -1.6810 C.2     1  UNL1        0.0000
     32 H           0.4755    5.7253   -1.7839 H       1  UNL1        0.0000
     33 C          -0.9194    2.7572   -2.5700 C.2     1  UNL1        0.0000
     34 H          -1.3698    2.2066   -3.3799 H       1  UNL1        0.0000
     35 C          -0.4617    4.0554   -2.7533 C.2     1  UNL1        0.0000
     36 H          -0.5485    4.5405   -3.7134 H       1  UNL1        0.0000
@<TRIPOS>BOND
     1    36    35    1
     2    34    33    1
     3    35    33    1
     4    35    31    2
     5    33    29    2
     6    32    31    1
     7    31    28    1
     8    29    30    1
     9    29    24    1
    10    28    24    1
    11    28    25    1
    12    24     1    1
    13    27    26    1
    14     7     6    1
    15    25    26    2
    16    25     8    1
    17     6     1    1
    18    26     9    1
    19     5     1    1
    20     5     2    1
    21     1     8    1
    22     1     3    1
    23     1    11    1
    24     2     4    2
    25     2     3    1
    26     8    12    1
    27     9    10    1
    28     9    13    2
    29    12    13    1
    30    12    15    2
    31    11    15    1
    32    11    16    1
    33    13    14    1
    34    17    16    1
    35    15    18    1
    36    16    20    2
    37    18    19    1
    38    18    22    2
    39    20    21    1
    40    20    22    1
    41    22    23    1
