@<TRIPOS>MOLECULE
CSD_code = CIXXEN | q = 0 | S = 0 | Stoichiometry = C45H48CoP3S | MND = 4
 98 105 0 0 0
SMALL
GASTEIGER

@<TRIPOS>ATOM
      1 CO          9.0322    8.2758    4.0252 Co.oh   1  UNL1        0.0000
      2 S           8.7276    6.1386    3.9275 S.3     1  UNL1        0.0000
      3 P           7.1804    9.1867    4.9757 P.3     1  UNL1        0.0000
      4 P           9.3134   10.1516    3.0183 P.3     1  UNL1        0.0000
      5 P          10.4051    8.7915    5.6589 P.3     1  UNL1        0.0000
      6 C           7.8041   10.5610    6.0526 C.3     1  UNL1        0.0000
      7 H           6.9805   11.2570    6.2358 H       1  UNL1        0.0000
      8 H           8.0641   10.0893    7.0066 H       1  UNL1        0.0000
      9 C           8.9155   11.6360    4.0367 C.3     1  UNL1        0.0000
     10 H           9.5703   12.4705    3.7728 H       1  UNL1        0.0000
     11 H           7.8892   11.9211    3.7918 H       1  UNL1        0.0000
     12 C          10.3510   10.6404    5.8683 C.3     1  UNL1        0.0000
     13 H          10.6342   10.8636    6.9008 H       1  UNL1        0.0000
     14 H          11.1331   11.0431    5.2163 H       1  UNL1        0.0000
     15 C           9.0240   11.3480    5.5428 C.3     1  UNL1        0.0000
     16 C           9.0386   12.7000    6.2767 C.3     1  UNL1        0.0000
     17 H           8.1878   13.3104    5.9779 H       1  UNL1        0.0000
     18 H           9.9488   13.2525    6.0487 H       1  UNL1        0.0000
     19 H           8.9911   12.5516    7.3541 H       1  UNL1        0.0000
     20 C           6.1226    8.2913    6.1769 C.ar    1  UNL1        0.0000
     21 C           5.9159    6.9355    5.9437 C.ar    1  UNL1        0.0000
     22 H           6.4180    6.4623    5.1103 H       1  UNL1        0.0000
     23 C           5.1097    6.1924    6.7857 C.ar    1  UNL1        0.0000
     24 H           4.9611    5.1389    6.5975 H       1  UNL1        0.0000
     25 C           4.5024    6.7970    7.8733 C.ar    1  UNL1        0.0000
     26 H           3.8779    6.2189    8.5392 H       1  UNL1        0.0000
     27 C           4.6979    8.1479    8.1065 C.ar    1  UNL1        0.0000
     28 H           4.2210    8.6240    8.9517 H       1  UNL1        0.0000
     29 C           5.4973    8.8960    7.2613 C.ar    1  UNL1        0.0000
     30 H           5.6243    9.9505    7.4550 H       1  UNL1        0.0000
     31 C           5.7913    9.9171    4.0303 C.ar    1  UNL1        0.0000
     32 C           5.1197    8.9930    3.2303 C.ar    1  UNL1        0.0000
     33 H           5.4393    7.9591    3.2551 H       1  UNL1        0.0000
     34 C           4.0761    9.3837    2.4180 C.ar    1  UNL1        0.0000
     35 H           3.5628    8.6553    1.8073 H       1  UNL1        0.0000
     36 C           3.6943   10.7157    2.3780 C.ar    1  UNL1        0.0000
     37 H           2.8873   11.0316    1.7336 H       1  UNL1        0.0000
     38 C           4.3510   11.6398    3.1699 C.ar    1  UNL1        0.0000
     39 H           4.0524   12.6786    3.1476 H       1  UNL1        0.0000
     40 C           5.3895   11.2459    3.9969 C.ar    1  UNL1        0.0000
     41 H           5.8678   11.9921    4.6158 H       1  UNL1        0.0000
     42 C          10.8417   10.5750    2.1046 C.ar    1  UNL1        0.0000
     43 C          11.1737    9.6431    1.1210 C.ar    1  UNL1        0.0000
     44 H          10.5091    8.8031    0.9579 H       1  UNL1        0.0000
     45 C          12.3285    9.7790    0.3783 C.ar    1  UNL1        0.0000
     46 H          12.5731    9.0511   -0.3814 H       1  UNL1        0.0000
     47 C          13.1781   10.8489    0.6158 C.ar    1  UNL1        0.0000
     48 H          14.0856   10.9593    0.0407 H       1  UNL1        0.0000
     49 C          12.8646   11.7718    1.5980 C.ar    1  UNL1        0.0000
     50 H          13.5290   12.6021    1.7913 H       1  UNL1        0.0000
     51 C          11.7050   11.6371    2.3434 C.ar    1  UNL1        0.0000
     52 H          11.4943   12.3664    3.1135 H       1  UNL1        0.0000
     53 C           8.1329   10.3222    1.6404 C.ar    1  UNL1        0.0000
     54 C           7.5030    9.1644    1.2032 C.ar    1  UNL1        0.0000
     55 H           7.7292    8.2256    1.7041 H       1  UNL1        0.0000
     56 C           6.5925    9.2159    0.1646 C.ar    1  UNL1        0.0000
     57 H           6.1021    8.3142   -0.1717 H       1  UNL1        0.0000
     58 C           6.3058   10.4293   -0.4373 C.ar    1  UNL1        0.0000
     59 H           5.5882   10.4768   -1.2434 H       1  UNL1        0.0000
     60 C           6.9396   11.5857   -0.0105 C.ar    1  UNL1        0.0000
     61 H           6.7175   12.5296   -0.4878 H       1  UNL1        0.0000
     62 C           7.8582   11.5358    1.0211 C.ar    1  UNL1        0.0000
     63 H           8.3632   12.4361    1.3442 H       1  UNL1        0.0000
     64 C          12.2201    8.5884    5.7539 C.ar    1  UNL1        0.0000
     65 C          12.8626    7.8398    6.7353 C.ar    1  UNL1        0.0000
     66 H          12.2939    7.4017    7.5433 H       1  UNL1        0.0000
     67 C          14.2320    7.6500    6.6808 C.ar    1  UNL1        0.0000
     68 H          14.7214    7.0732    7.4525 H       1  UNL1        0.0000
     69 C          14.9743    8.1877    5.6431 C.ar    1  UNL1        0.0000
     70 H          16.0430    8.0353    5.6051 H       1  UNL1        0.0000
     71 C          14.3376    8.9069    4.6438 C.ar    1  UNL1        0.0000
     72 H          14.9049    9.3123    3.8181 H       1  UNL1        0.0000
     73 C          12.9710    9.0952    4.6950 C.ar    1  UNL1        0.0000
     74 H          12.4713    9.6284    3.8971 H       1  UNL1        0.0000
     75 C           9.8693    8.2394    7.3208 C.ar    1  UNL1        0.0000
     76 C           8.9132    7.2338    7.3912 C.ar    1  UNL1        0.0000
     77 H           8.5595    6.7838    6.4736 H       1  UNL1        0.0000
     78 C           8.4207    6.8124    8.6133 C.ar    1  UNL1        0.0000
     79 H           7.6676    6.0392    8.6500 H       1  UNL1        0.0000
     80 C           8.8889    7.3881    9.7812 C.ar    1  UNL1        0.0000
     81 H           8.5041    7.0681   10.7386 H       1  UNL1        0.0000
     82 C           9.8634    8.3728    9.7224 C.ar    1  UNL1        0.0000
     83 H          10.2438    8.8113   10.6343 H       1  UNL1        0.0000
     84 C          10.3532    8.7983    8.5018 C.ar    1  UNL1        0.0000
     85 H          11.1254    9.5559    8.4750 H       1  UNL1        0.0000
     86 C          10.3296    5.2440    3.8148 C.3     1  UNL1        0.0000
     87 C          11.2801    6.0217    2.9124 C.3     1  UNL1        0.0000
     88 C          10.0211    3.8717    3.2239 C.3     1  UNL1        0.0000
     89 C          10.9073    5.1029    5.2170 C.3     1  UNL1        0.0000
     90 H          10.8858    6.0670    1.8979 H       1  UNL1        0.0000
     91 H          10.2205    4.5533    5.8581 H       1  UNL1        0.0000
     92 H           9.5697    3.9745    2.2390 H       1  UNL1        0.0000
     93 H          11.0719    6.0887    5.6538 H       1  UNL1        0.0000
     94 H          10.9363    3.2877    3.1312 H       1  UNL1        0.0000
     95 H          11.8604    4.5753    5.1852 H       1  UNL1        0.0000
     96 H           9.3238    3.3350    3.8636 H       1  UNL1        0.0000
     97 H          11.4002    7.0426    3.2843 H       1  UNL1        0.0000
     98 H          12.2614    5.5474    2.8852 H       1  UNL1        0.0000
@<TRIPOS>BOND
     1    59    58    1
     2    61    60    1
     3    58    60   ar
     4    58    56   ar
     5    46    45    1
     6    57    56    1
     7    60    62   ar
     8    48    47    1
     9    56    54   ar
    10    45    47   ar
    11    45    43   ar
    12    47    49   ar
    13    44    43    1
    14    62    63    1
    15    62    53   ar
    16    43    42   ar
    17    54    53   ar
    18    54    55    1
    19    49    50    1
    20    49    51   ar
    21    53     4    1
    22    37    36    1
    23    35    34    1
    24    90    87    1
    25    42    51   ar
    26    42     4    1
    27    92    88    1
    28    51    52    1
    29    36    34   ar
    30    36    38   ar
    31    34    32   ar
    32    98    87    1
    33    87    97    1
    34    87    86    1
    35     4     1    1
    36     4     9    1
    37    94    88    1
    38    39    38    1
    39    38    40   ar
    40    88    86    1
    41    88    96    1
    42    32    33    1
    43    32    31   ar
    44    10     9    1
    45    11     9    1
    46    86     2    1
    47    86    89    1
    48    72    71    1
    49    74    73    1
    50     2     1    1
    51    40    31   ar
    52    40    41    1
    53     1     3    1
    54     1     5    1
    55    31     3    1
    56     9    15    1
    57    71    73   ar
    58    71    69   ar
    59    73    64   ar
    60     3     6    1
    61     3    20    1
    62    22    21    1
    63    95    89    1
    64    14    12    1
    65    89    93    1
    66    89    91    1
    67    15    12    1
    68    15     6    1
    69    15    16    1
    70    70    69    1
    71    69    67   ar
    72     5    64    1
    73     5    12    1
    74     5    75    1
    75    64    65   ar
    76    12    13    1
    77    21    20   ar
    78    21    23   ar
    79    17    16    1
    80    18    16    1
    81     6     7    1
    82     6     8    1
    83    20    29   ar
    84    16    19    1
    85    77    76    1
    86    24    23    1
    87    67    65   ar
    88    67    68    1
    89    65    66    1
    90    23    25   ar
    91    29    30    1
    92    29    27   ar
    93    75    76   ar
    94    75    84   ar
    95    76    78   ar
    96    25    27   ar
    97    25    26    1
    98    27    28    1
    99    85    84    1
   100    84    82   ar
   101    78    79    1
   102    78    80   ar
   103    82    80   ar
   104    82    83    1
   105    80    81    1
