@<TRIPOS>MOLECULE
CSD_code = CUSCOI | q = 0 | S = 0 | Stoichiometry = C7H14CoN5O3S | MND = 6
 31 33 0 0 0
SMALL
GASTEIGER

@<TRIPOS>ATOM
      1 CO          4.9977    8.7207    2.8341 Co.oh   1  UNL1        0.0000
      2 S           3.1295    8.4201   -1.1705 S.2     1  UNL1        0.0000
      3 O           6.4151    9.4539    1.9042 O.3     1  UNL1        0.0000
      4 O           8.2708    8.9737    0.8202 O.2     1  UNL1        0.0000
      5 O           5.3234    4.8522    2.2280 O.2     1  UNL1        0.0000
      6 N           5.6238    7.1088    2.2624 N.am    1  UNL1        0.0000
      7 N           3.6013    7.6199    3.8070 N.4     1  UNL1        0.0000
      8 N           6.2797    8.7323    4.4949 N.4     1  UNL1        0.0000
      9 N           4.5225   10.6020    3.5268 N.4     1  UNL1        0.0000
     10 N           3.8336    8.8827    1.4443 N.2     1  UNL1        0.0000
     11 C           7.2311    8.6241    1.3329 C.2     1  UNL1        0.0000
     12 C           6.7954    7.1533    1.4162 C.3     1  UNL1        0.0000
     13 C           4.9659    5.9845    2.5027 C.2     1  UNL1        0.0000
     14 C           3.6197    6.2664    3.2075 C.3     1  UNL1        0.0000
     15 C           5.9592    9.8813    5.3462 C.3     1  UNL1        0.0000
     16 C           5.5976   11.0434    4.4224 C.3     1  UNL1        0.0000
     17 C           3.6286    8.6439    0.3016 C.1     1  UNL1        0.0000
     18 H           2.6595    7.9979    3.7253 H       1  UNL1        0.0000
     19 H           3.8042    7.5342    4.8009 H       1  UNL1        0.0000
     20 H           7.1749    8.9077    4.0369 H       1  UNL1        0.0000
     21 H           6.3978    7.8846    5.0457 H       1  UNL1        0.0000
     22 H           6.7947   10.1631    5.9983 H       1  UNL1        0.0000
     23 H           5.1008    9.6293    5.9770 H       1  UNL1        0.0000
     24 H           6.4662   11.2835    3.8062 H       1  UNL1        0.0000
     25 H           5.3166   11.9270    5.0066 H       1  UNL1        0.0000
     26 H           4.5142   11.1790    2.6880 H       1  UNL1        0.0000
     27 H           3.6151   10.7135    3.9747 H       1  UNL1        0.0000
     28 H           7.6097    6.5424    1.8227 H       1  UNL1        0.0000
     29 H           6.5692    6.7848    0.4090 H       1  UNL1        0.0000
     30 H           2.8606    6.2071    2.4251 H       1  UNL1        0.0000
     31 H           3.4184    5.4859    3.9458 H       1  UNL1        0.0000
@<TRIPOS>BOND
     1     2    17    2
     2    17    10    2
     3    29    12    1
     4     4    11    2
     5    11    12    1
     6    11     3    1
     7    12    28    1
     8    12     6    1
     9    10     1    1
    10     3     1    1
    11     5    13    2
    12     6    13   am
    13     6     1    1
    14    30    14    1
    15    13    14    1
    16    26     9    1
    17     1     9    1
    18     1     7    1
    19     1     8    1
    20    14     7    1
    21    14    31    1
    22     9    27    1
    23     9    16    1
    24    18     7    1
    25    24    16    1
    26     7    19    1
    27    20     8    1
    28    16    25    1
    29    16    15    1
    30     8    21    1
    31     8    15    1
    32    15    23    1
    33    15    22    1
