@<TRIPOS>MOLECULE
CSD_code = DANHOR | q = 1 | S = 0 | Stoichiometry = C32H34CoN4O4(1+) | MND = 6
 75 82 0 0 0
SMALL
GASTEIGER

@<TRIPOS>ATOM
      1 CO          3.5802    5.6350    9.3253 Co.oh   1  UNL1        0.0000
      2 N           4.1616    6.8641   10.6307 N.3     1  UNL1        0.0000
      3 N           2.6331    7.3046    8.4760 N.pl3   1  UNL1        0.0000
      4 N           3.0042    4.4487    7.9808 N.3     1  UNL1        0.0000
      5 N           5.2967    5.8443    8.1191 N.pl3   1  UNL1        0.0000
      6 O           4.3960    4.1899   10.1113 O.3     1  UNL1        0.0000
      7 O           2.0927    5.3836   10.3755 O.3     1  UNL1        0.0000
      8 O           5.2123    1.8630   10.8225 O.3     1  UNL1        0.0000
      9 O           0.4576    5.1968   12.3498 O.3     1  UNL1        0.0000
     10 C           5.1260    5.2548   12.1408 C.ar    1  UNL1        0.0000
     11 C           4.9307    4.1432   11.2840 C.ar    1  UNL1        0.0000
     12 C           5.3975    2.8618   11.7309 C.ar    1  UNL1        0.0000
     13 C           5.9889    2.7283   12.9627 C.ar    1  UNL1        0.0000
     14 H           6.3316    1.7647   13.3038 H       1  UNL1        0.0000
     15 C           6.1566    3.8384   13.8026 C.ar    1  UNL1        0.0000
     16 H           6.6215    3.6999   14.7653 H       1  UNL1        0.0000
     17 C           5.7384    5.0728   13.4019 C.ar    1  UNL1        0.0000
     18 H           5.8692    5.9315   14.0421 H       1  UNL1        0.0000
     19 C           4.7013    6.5493   11.7587 C.3     1  UNL1        0.0000
     20 H           4.8652    7.3381   12.4934 H       1  UNL1        0.0000
     21 C           3.7381    8.2323   10.4052 C.3     1  UNL1        0.0000
     22 H           4.5071    8.7528    9.8186 H       1  UNL1        0.0000
     23 H           3.6084    8.7708   11.3491 H       1  UNL1        0.0000
     24 C           2.4235    8.1889    9.6331 C.3     1  UNL1        0.0000
     25 H           1.6586    7.7535   10.2755 H       1  UNL1        0.0000
     26 H           2.1106    9.1905    9.3172 H       1  UNL1        0.0000
     27 C           1.4835    7.0350    7.6621 C.ar    1  UNL1        0.0000
     28 C           1.6200    7.0958    6.2787 C.ar    1  UNL1        0.0000
     29 H           2.5616    7.4038    5.8405 H       1  UNL1        0.0000
     30 C           0.5583    6.7767    5.4519 C.ar    1  UNL1        0.0000
     31 H           0.6796    6.8297    4.3810 H       1  UNL1        0.0000
     32 C          -0.6561    6.4010    5.9996 C.ar    1  UNL1        0.0000
     33 H          -1.4853    6.1511    5.3572 H       1  UNL1        0.0000
     34 C          -0.8019    6.3591    7.3758 C.ar    1  UNL1        0.0000
     35 H          -1.7482    6.0774    7.8104 H       1  UNL1        0.0000
     36 C           0.2564    6.6790    8.2075 C.ar    1  UNL1        0.0000
     37 H           0.1232    6.6334    9.2749 H       1  UNL1        0.0000
     38 C           5.5784    0.5530   11.1903 C.3     1  UNL1        0.0000
     39 H           6.6544    0.4737   11.3752 H       1  UNL1        0.0000
     40 H           5.3115   -0.0757   10.3427 H       1  UNL1        0.0000
     41 H           5.0308    0.2176   12.0757 H       1  UNL1        0.0000
     42 C           1.1410    3.5206    9.1912 C.ar    1  UNL1        0.0000
     43 C           1.2447    4.4152   10.2856 C.ar    1  UNL1        0.0000
     44 C           0.3057    4.2728   11.3609 C.ar    1  UNL1        0.0000
     45 C          -0.6473    3.2842   11.3239 C.ar    1  UNL1        0.0000
     46 H          -1.3461    3.1674   12.1364 H       1  UNL1        0.0000
     47 C          -0.7269    2.4038   10.2362 C.ar    1  UNL1        0.0000
     48 H          -1.4838    1.6361   10.2394 H       1  UNL1        0.0000
     49 C           0.1436    2.5194    9.1923 C.ar    1  UNL1        0.0000
     50 H           0.0872    1.8436    8.3530 H       1  UNL1        0.0000
     51 C           2.0429    3.5987    8.1031 C.3     1  UNL1        0.0000
     52 H           1.8896    2.8702    7.3063 H       1  UNL1        0.0000
     53 C           3.8866    4.3685    6.8347 C.3     1  UNL1        0.0000
     54 H           3.6074    5.1455    6.1108 H       1  UNL1        0.0000
     55 H           3.8096    3.3963    6.3376 H       1  UNL1        0.0000
     56 C           5.3083    4.5977    7.3391 C.3     1  UNL1        0.0000
     57 H           5.5737    3.7721    7.9988 H       1  UNL1        0.0000
     58 H           6.0245    4.6515    6.5116 H       1  UNL1        0.0000
     59 C           6.5008    6.1774    8.8229 C.ar    1  UNL1        0.0000
     60 C           6.9129    7.5068    8.8341 C.ar    1  UNL1        0.0000
     61 H           6.3665    8.2466    8.2622 H       1  UNL1        0.0000
     62 C           8.0216    7.8949    9.5631 C.ar    1  UNL1        0.0000
     63 H           8.3276    8.9297    9.5611 H       1  UNL1        0.0000
     64 C           8.7393    6.9558   10.2837 C.ar    1  UNL1        0.0000
     65 H           9.6032    7.2559   10.8549 H       1  UNL1        0.0000
     66 C           8.3484    5.6285   10.2546 C.ar    1  UNL1        0.0000
     67 H           8.9092    4.8880   10.8029 H       1  UNL1        0.0000
     68 C           7.2410    5.2342    9.5247 C.ar    1  UNL1        0.0000
     69 H           6.9557    4.1961    9.5216 H       1  UNL1        0.0000
     70 C          -0.3782    5.1052   13.4805 C.3     1  UNL1        0.0000
     71 H          -1.4304    5.2469   13.2148 H       1  UNL1        0.0000
     72 H          -0.0633    5.9081   14.1444 H       1  UNL1        0.0000
     73 H          -0.2571    4.1455   13.9912 H       1  UNL1        0.0000
     74 H           5.1210    6.6062    7.4606 H       1  UNL1        0.0000
     75 H           3.3152    7.7691    7.8722 H       1  UNL1        0.0000
@<TRIPOS>BOND
     1    31    30    1
     2    33    32    1
     3    30    32   ar
     4    30    28   ar
     5    29    28    1
     6    32    34   ar
     7    54    53    1
     8    28    27   ar
     9    55    53    1
    10    58    56    1
    11    53    56    1
    12    53     4    1
    13    52    51    1
    14    56    57    1
    15    56     5    1
    16    34    35    1
    17    34    36   ar
    18    74     5    1
    19    27    36   ar
    20    27     3    1
    21    75     3    1
    22     4    51    1
    23     4     1    1
    24    51    42    1
    25     5    59    1
    26     5     1    1
    27    36    37    1
    28    61    60    1
    29    50    49    1
    30     3     1    1
    31     3    24    1
    32    59    60   ar
    33    59    68   ar
    34    60    62   ar
    35    42    49   ar
    36    42    43   ar
    37    49    47   ar
    38    26    24    1
    39     1     6    1
    40     1     7    1
    41     1     2    1
    42    69    68    1
    43    68    66   ar
    44    63    62    1
    45    62    64   ar
    46    24    25    1
    47    24    21    1
    48    22    21    1
    49     6    11    1
    50    47    48    1
    51    47    45   ar
    52    66    64   ar
    53    66    67    1
    54    64    65    1
    55    43     7    1
    56    43    44   ar
    57    40    38    1
    58    21     2    1
    59    21    23    1
    60     2    19    1
    61     8    38    1
    62     8    12    1
    63    38    39    1
    64    38    41    1
    65    11    12   ar
    66    11    10   ar
    67    45    44   ar
    68    45    46    1
    69    44     9    1
    70    12    13   ar
    71    19    10    1
    72    19    20    1
    73    10    17   ar
    74     9    70    1
    75    13    14    1
    76    13    15   ar
    77    71    70    1
    78    17    15   ar
    79    17    18    1
    80    70    73    1
    81    70    72    1
    82    15    16    1
