@<TRIPOS>MOLECULE
CSD_code = DAWXAC | q = -1 | S = 0 | Stoichiometry = C38H26CoN6O12(1-) | MND = 6
 83 92 0 0 0
SMALL
GASTEIGER

@<TRIPOS>ATOM
      1 CO         -0.0000    0.0000    0.0000 Co.oh   1  UNL1        0.0000
      2 O           2.8461    1.8774   -2.0255 O.2     1  UNL1        0.0000
      3 O           1.5217   -3.8879   -3.7690 O.3     1  UNL1        0.0000
      4 H           2.1791   -4.5577   -4.0005 H       1  UNL1        0.0000
      5 O           4.1851   -4.1697   -3.2975 O.3     1  UNL1        0.0000
      6 H           5.1088   -4.1240   -3.0315 H       1  UNL1        0.0000
      7 N           1.4068    0.2226   -1.3039 N.am    1  UNL1        0.0000
      8 N           0.0000    1.7640    0.0001 N.pl3   1  UNL1        0.0000
      9 C           1.8656    1.4814   -1.4026 C.2     1  UNL1        0.0000
     10 C           0.9391    2.4100   -0.6792 C.3     1  UNL1        0.0000
     11 C           0.9785    3.7960   -0.6937 C.2     1  UNL1        0.0000
     12 H           1.7579    4.2928   -1.2494 H       1  UNL1        0.0000
     13 C           0.0001    4.4930    0.0002 C.2     1  UNL1        0.0000
     14 H           0.0001    5.5734    0.0003 H       1  UNL1        0.0000
     15 C           2.1435   -0.8261   -1.8563 C.ar    1  UNL1        0.0000
     16 C           1.4897   -1.8096   -2.6022 C.ar    1  UNL1        0.0000
     17 H           0.4382   -1.7206   -2.8215 H       1  UNL1        0.0000
     18 C           2.1755   -2.9152   -3.0672 C.ar    1  UNL1        0.0000
     19 C           3.5453   -3.0356   -2.8161 C.ar    1  UNL1        0.0000
     20 C           4.2065   -2.0401   -2.1218 C.ar    1  UNL1        0.0000
     21 H           5.2703   -2.1317   -1.9421 H       1  UNL1        0.0000
     22 C           3.5161   -0.9435   -1.6434 C.ar    1  UNL1        0.0000
     23 H           4.0362   -0.1688   -1.1063 H       1  UNL1        0.0000
     24 O          -2.8461    1.8773    2.0256 O.2     1  UNL1        0.0000
     25 O          -2.8461   -1.8774   -2.0255 O.2     1  UNL1        0.0000
     26 O           2.8461   -1.8773    2.0256 O.2     1  UNL1        0.0000
     27 O          -1.5219   -3.8879    3.7691 O.3     1  UNL1        0.0000
     28 O          -1.5217    3.8879   -3.7690 O.3     1  UNL1        0.0000
     29 O           1.5219    3.8879    3.7691 O.3     1  UNL1        0.0000
     30 H          -2.1793   -4.5577    4.0005 H       1  UNL1        0.0000
     31 H          -2.1791    4.5577   -4.0005 H       1  UNL1        0.0000
     32 H           2.1793    4.5577    4.0005 H       1  UNL1        0.0000
     33 O          -4.1852   -4.1698    3.2971 O.3     1  UNL1        0.0000
     34 O          -4.1851    4.1697   -3.2975 O.3     1  UNL1        0.0000
     35 O           4.1852    4.1698    3.2971 O.3     1  UNL1        0.0000
     36 H          -5.1088   -4.1243    3.0310 H       1  UNL1        0.0000
     37 H          -5.1088    4.1240   -3.0315 H       1  UNL1        0.0000
     38 H           5.1088    4.1243    3.0310 H       1  UNL1        0.0000
     39 N          -1.4068    0.2225    1.3040 N.am    1  UNL1        0.0000
     40 N          -1.4068   -0.2226   -1.3039 N.am    1  UNL1        0.0000
     41 N           1.4068   -0.2225    1.3040 N.am    1  UNL1        0.0000
     42 N          -0.0000   -1.7640    0.0001 N.pl3   1  UNL1        0.0000
     43 C          -1.8656    1.4813    1.4028 C.2     1  UNL1        0.0000
     44 C          -1.8656   -1.4814   -1.4026 C.2     1  UNL1        0.0000
     45 C           1.8656   -1.4813    1.4028 C.2     1  UNL1        0.0000
     46 C          -0.9391    2.4100    0.6794 C.2     1  UNL1        0.0000
     47 C          -0.9391   -2.4100   -0.6792 C.3     1  UNL1        0.0000
     48 C           0.9391   -2.4100    0.6794 C.2     1  UNL1        0.0000
     49 C          -0.9784    3.7960    0.6941 C.2     1  UNL1        0.0000
     50 C          -0.9785   -3.7960   -0.6937 C.2     1  UNL1        0.0000
     51 C           0.9784   -3.7960    0.6941 C.2     1  UNL1        0.0000
     52 H          -1.7577    4.2928    1.2498 H       1  UNL1        0.0000
     53 H          -1.7579   -4.2928   -1.2494 H       1  UNL1        0.0000
     54 H           1.7577   -4.2928    1.2498 H       1  UNL1        0.0000
     55 C          -0.0001   -4.4930    0.0002 C.2     1  UNL1        0.0000
     56 H          -0.0001   -5.5734    0.0003 H       1  UNL1        0.0000
     57 C          -2.1435   -0.8262    1.8563 C.ar    1  UNL1        0.0000
     58 C          -2.1435    0.8261   -1.8563 C.ar    1  UNL1        0.0000
     59 C           2.1435    0.8262    1.8563 C.ar    1  UNL1        0.0000
     60 C          -1.4898   -1.8096    2.6023 C.ar    1  UNL1        0.0000
     61 C          -1.4897    1.8096   -2.6022 C.ar    1  UNL1        0.0000
     62 C           1.4898    1.8096    2.6023 C.ar    1  UNL1        0.0000
     63 H          -0.4384   -1.7206    2.8218 H       1  UNL1        0.0000
     64 H          -0.4382    1.7206   -2.8215 H       1  UNL1        0.0000
     65 H           0.4384    1.7206    2.8218 H       1  UNL1        0.0000
     66 C          -2.1756   -2.9152    3.0672 C.ar    1  UNL1        0.0000
     67 C          -2.1755    2.9152   -3.0672 C.ar    1  UNL1        0.0000
     68 C           2.1756    2.9152    3.0672 C.ar    1  UNL1        0.0000
     69 C          -3.5453   -3.0358    2.8159 C.ar    1  UNL1        0.0000
     70 C          -3.5453    3.0356   -2.8161 C.ar    1  UNL1        0.0000
     71 C           3.5453    3.0358    2.8159 C.ar    1  UNL1        0.0000
     72 C          -4.2065   -2.0403    2.1215 C.ar    1  UNL1        0.0000
     73 C          -4.2065    2.0401   -2.1218 C.ar    1  UNL1        0.0000
     74 C           4.2065    2.0403    2.1215 C.ar    1  UNL1        0.0000
     75 H          -5.2703   -2.1319    1.9416 H       1  UNL1        0.0000
     76 H          -5.2703    2.1317   -1.9421 H       1  UNL1        0.0000
     77 H           5.2703    2.1319    1.9416 H       1  UNL1        0.0000
     78 C          -3.5161   -0.9436    1.6432 C.ar    1  UNL1        0.0000
     79 C          -3.5161    0.9435   -1.6434 C.ar    1  UNL1        0.0000
     80 C           3.5161    0.9436    1.6432 C.ar    1  UNL1        0.0000
     81 H          -4.0361   -0.1689    1.1060 H       1  UNL1        0.0000
     82 H          -4.0362    0.1688   -1.1063 H       1  UNL1        0.0000
     83 H           4.0361    0.1689    1.1060 H       1  UNL1        0.0000
@<TRIPOS>BOND
     1     4     3    1
     2    31    28    1
     3     3    18    1
     4    28    67    1
     5    34    37    1
     6    34    70    1
     7     5     6    1
     8     5    19    1
     9    18    19   ar
    10    18    16   ar
    11    67    70   ar
    12    67    61   ar
    13    17    16    1
    14    64    61    1
    15    19    20   ar
    16    70    73   ar
    17    16    15   ar
    18    61    58   ar
    19    20    21    1
    20    20    22   ar
    21    73    76    1
    22    73    79   ar
    23     2     9    2
    24    25    44    2
    25    58    79   ar
    26    58    40    1
    27    15    22   ar
    28    15     7    1
    29    22    23    1
    30    79    82    1
    31    44    40   am
    32    44    47    1
    33     9     7   am
    34     9    10    1
    35    40     1    1
    36     7     1    1
    37    53    50    1
    38    12    11    1
    39    11    10    1
    40    11    13    2
    41    50    47    1
    42    50    55    2
    43    47    42    1
    44    10     8    1
    45     1    42    1
    46     1     8    1
    47     1    41    1
    48     1    39    1
    49    42    48    1
    50     8    46    1
    51    13    14    1
    52    13    49    1
    53    55    56    1
    54    55    51    1
    55    48    51    2
    56    48    45    1
    57    46    49    2
    58    46    43    1
    59    49    52    1
    60    51    54    1
    61    81    78    1
    62    83    80    1
    63    41    45   am
    64    41    59    1
    65    39    43   am
    66    39    57    1
    67    45    26    2
    68    43    24    2
    69    78    57   ar
    70    78    72   ar
    71    80    59   ar
    72    80    74   ar
    73    59    62   ar
    74    57    60   ar
    75    77    74    1
    76    75    72    1
    77    72    69   ar
    78    74    71   ar
    79    60    63    1
    80    60    66   ar
    81    62    65    1
    82    62    68   ar
    83    69    66   ar
    84    69    33    1
    85    71    68   ar
    86    71    35    1
    87    38    35    1
    88    36    33    1
    89    66    27    1
    90    68    29    1
    91    27    30    1
    92    29    32    1
