@<TRIPOS>MOLECULE
CSD_code = DEBQOS | q = 1 | S = 0 | Stoichiometry = C18H22CoN8S2(1+) | MND = 6
 51 56 0 0 0
SMALL
GASTEIGER

@<TRIPOS>ATOM
      1 CO          9.8830    7.1909    1.9282 Co.oh   1  UNL1        0.0000
      2 S           6.2654    4.7237    2.0352 S.3     1  UNL1        0.0000
      3 S           8.4345   11.2842    2.5058 S.3     1  UNL1        0.0000
      4 N           8.3145    6.4040    2.6910 N.pl3   1  UNL1        0.0000
      5 H           7.8693    6.4910    3.5964 H       1  UNL1        0.0000
      6 N           8.9200    8.7900    1.5073 N.pl3   1  UNL1        0.0000
      7 H           8.3003    9.0424    0.7472 H       1  UNL1        0.0000
      8 N           8.2489    5.5124    0.5803 N.2     1  UNL1        0.0000
      9 N           9.8884    9.3927    3.4957 N.2     1  UNL1        0.0000
     10 N           9.3404    6.2358    0.4678 N.pl3   1  UNL1        0.0000
     11 N          10.3558    8.1682    3.3983 N.pl3   1  UNL1        0.0000
     12 N          11.3165    7.7351    0.7780 N.pl3   1  UNL1        0.0000
     13 N          10.9723    5.8370    2.7382 N.pl3   1  UNL1        0.0000
     14 C           7.7251    5.6417    1.7999 C.2     1  UNL1        0.0000
     15 C           9.1095    9.6809    2.4522 C.2     1  UNL1        0.0000
     16 C           5.8197    5.1195    3.7552 C.3     1  UNL1        0.0000
     17 H           6.5956    4.7772    4.4343 H       1  UNL1        0.0000
     18 H           4.9029    4.5715    3.9485 H       1  UNL1        0.0000
     19 H           5.6324    6.1844    3.8613 H       1  UNL1        0.0000
     20 C           7.4468   11.3513    0.9782 C.3     1  UNL1        0.0000
     21 H           7.0013   12.3410    0.9668 H       1  UNL1        0.0000
     22 H           6.6604   10.6022    1.0035 H       1  UNL1        0.0000
     23 H           8.0878   11.2334    0.1090 H       1  UNL1        0.0000
     24 C          10.0594    6.3133   -0.6182 C.2     1  UNL1        0.0000
     25 C          11.1348    7.6087    4.2829 C.2     1  UNL1        0.0000
     26 C           9.7262    5.5878   -1.8782 C.3     1  UNL1        0.0000
     27 H           8.8192    5.0107   -1.7185 H       1  UNL1        0.0000
     28 H          10.5342    4.9153   -2.1626 H       1  UNL1        0.0000
     29 H           9.5627    6.2886   -2.6953 H       1  UNL1        0.0000
     30 C          11.5923    8.2943    5.5260 C.3     1  UNL1        0.0000
     31 H          12.6794    8.3499    5.5592 H       1  UNL1        0.0000
     32 H          11.2515    7.7581    6.4103 H       1  UNL1        0.0000
     33 H          11.1813    9.3004    5.5408 H       1  UNL1        0.0000
     34 C          11.1998    7.1762   -0.4546 C.2     1  UNL1        0.0000
     35 C          11.4946    6.2638    3.9173 C.2     1  UNL1        0.0000
     36 C          12.1330    7.4516   -1.4595 C.2     1  UNL1        0.0000
     37 H          12.0180    6.9936   -2.4279 H       1  UNL1        0.0000
     38 C          12.3073    5.4261    4.6883 C.2     1  UNL1        0.0000
     39 H          12.7089    5.7898    5.6195 H       1  UNL1        0.0000
     40 C          13.1812    8.3082   -1.1954 C.2     1  UNL1        0.0000
     41 H          13.9095    8.5357   -1.9579 H       1  UNL1        0.0000
     42 C          12.5763    4.1477    4.2462 C.2     1  UNL1        0.0000
     43 H          13.1982    3.4855    4.8277 H       1  UNL1        0.0000
     44 C          13.2813    8.8778    0.0691 C.2     1  UNL1        0.0000
     45 H          14.0806    9.5565    0.3153 H       1  UNL1        0.0000
     46 C          12.0288    3.7247    3.0400 C.2     1  UNL1        0.0000
     47 H          12.2096    2.7329    2.6610 H       1  UNL1        0.0000
     48 C          12.3282    8.5614    1.0201 C.2     1  UNL1        0.0000
     49 H          12.3812    8.9950    2.0092 H       1  UNL1        0.0000
     50 C          11.2358    4.6026    2.3235 C.2     1  UNL1        0.0000
     51 H          10.7939    4.2957    1.3856 H       1  UNL1        0.0000
@<TRIPOS>BOND
     1    29    26    1
     2    37    36    1
     3    28    26    1
     4    41    40    1
     5    26    27    1
     6    26    24    1
     7    36    40    2
     8    36    34    1
     9    40    44    1
    10    24    34    2
    11    24    10    1
    12    34    12    1
    13    44    45    1
    14    44    48    2
    15    23    20    1
    16    10     8    1
    17    10     1    1
    18     8    14    2
    19     7     6    1
    20    12    48    1
    21    12     1    1
    22    21    20    1
    23    20    22    1
    24    20     3    1
    25    48    49    1
    26    51    50    1
    27     6     1    1
    28     6    15    1
    29    14     2    1
    30    14     4    1
    31     1     4    1
    32     1    13    1
    33     1    11    1
    34     2    16    1
    35    50    13    1
    36    50    46    2
    37    15     3    1
    38    15     9    2
    39    47    46    1
    40     4     5    1
    41    13    35    1
    42    46    42    1
    43    11     9    1
    44    11    25    1
    45    16    19    1
    46    16    18    1
    47    16    17    1
    48    35    25    2
    49    35    38    1
    50    42    38    2
    51    42    43    1
    52    25    30    1
    53    38    39    1
    54    30    33    1
    55    30    31    1
    56    30    32    1
