@<TRIPOS>MOLECULE
CSD_code = DEBQEI | q = 1 | S = 0 | Stoichiometry = C18H22CoN8S2(1+) | MND = 6
 51 56 0 0 0
SMALL
GASTEIGER

@<TRIPOS>ATOM
      1 CO          5.6719    2.6940    1.2302 Co.oh   1  UNL1        0.0000
      2 S           2.1619    2.2425    3.8114 S.3     1  UNL1        0.0000
      3 S           7.5675   -1.2546    1.2675 S.3     1  UNL1        0.0000
      4 N           4.4231    3.4522    3.5039 N.2     1  UNL1        0.0000
      5 N           5.5100    3.6354    2.7881 N.pl3   1  UNL1        0.0000
      6 N           7.3410    3.6263    1.0859 N.pl3   1  UNL1        0.0000
      7 N           6.5668    1.1815    1.9870 N.pl3   1  UNL1        0.0000
      8 H           6.8541    0.9504    2.9301 H       1  UNL1        0.0000
      9 N           5.8115    1.6921   -0.2917 N.pl3   1  UNL1        0.0000
     10 N           4.8051    3.9515    0.0714 N.pl3   1  UNL1        0.0000
     11 N           6.4015    0.5212   -0.2018 N.2     1  UNL1        0.0000
     12 N           3.9723    2.0089    1.7812 N.pl3   1  UNL1        0.0000
     13 H           3.3472    1.3160    1.3880 H       1  UNL1        0.0000
     14 C           6.4773    4.4459    3.1191 C.3     1  UNL1        0.0000
     15 C           5.3213    2.1826   -1.3969 C.2     1  UNL1        0.0000
     16 C           6.7860    0.2857    1.0532 C.2     1  UNL1        0.0000
     17 C           8.2761    3.5469    0.1456 C.3     1  UNL1        0.0000
     18 H           8.0858    2.8745   -0.6795 H       1  UNL1        0.0000
     19 C           3.6244    2.5569    2.9219 C.2     1  UNL1        0.0000
     20 C           9.6702    5.1230    1.2738 C.2     1  UNL1        0.0000
     21 H          10.5782    5.7014    1.3409 H       1  UNL1        0.0000
     22 C           4.1263    4.2347   -2.2117 C.2     1  UNL1        0.0000
     23 H           4.0861    3.8401   -3.2134 H       1  UNL1        0.0000
     24 C           7.5408    4.4478    2.1492 C.2     1  UNL1        0.0000
     25 C           3.5828    5.4652   -1.9072 C.2     1  UNL1        0.0000
     26 H           3.1061    6.0587   -2.6714 H       1  UNL1        0.0000
     27 C           4.7357    3.4830   -1.2017 C.2     1  UNL1        0.0000
     28 C           6.4705    5.2690    4.3630 C.3     1  UNL1        0.0000
     29 H           5.5477    5.0760    4.9035 H       1  UNL1        0.0000
     30 H           6.5321    6.3300    4.1251 H       1  UNL1        0.0000
     31 H           7.3159    5.0131    4.9999 H       1  UNL1        0.0000
     32 C           4.2753    5.1366    0.3539 C.2     1  UNL1        0.0000
     33 H           4.3402    5.4706    1.3803 H       1  UNL1        0.0000
     34 C           9.4528    4.2721    0.1958 C.2     1  UNL1        0.0000
     35 H          10.1810    4.1690   -0.5911 H       1  UNL1        0.0000
     36 C           8.7076    5.2117    2.2576 C.2     1  UNL1        0.0000
     37 H           8.8403    5.8562    3.1107 H       1  UNL1        0.0000
     38 C           1.3218    1.0067    2.7720 C.3     1  UNL1        0.0000
     39 H           1.0952    1.4261    1.7957 H       1  UNL1        0.0000
     40 H           0.3961    0.7764    3.2898 H       1  UNL1        0.0000
     41 H           1.9248    0.1063    2.6936 H       1  UNL1        0.0000
     42 C           3.6557    5.9264   -0.5975 C.2     1  UNL1        0.0000
     43 H           3.2388    6.8787   -0.3159 H       1  UNL1        0.0000
     44 C           5.3666    1.4672   -2.7049 C.3     1  UNL1        0.0000
     45 H           5.8740    0.5164   -2.5647 H       1  UNL1        0.0000
     46 H           5.9028    2.0544   -3.4489 H       1  UNL1        0.0000
     47 H           4.3606    1.2814   -3.0780 H       1  UNL1        0.0000
     48 C           7.9503   -1.2621    3.0471 C.3     1  UNL1        0.0000
     49 H           8.6334   -0.4528    3.2895 H       1  UNL1        0.0000
     50 H           8.4378   -2.2139    3.2328 H       1  UNL1        0.0000
     51 H           7.0356   -1.2056    3.6306 H       1  UNL1        0.0000
@<TRIPOS>BOND
     1    46    44    1
     2    23    22    1
     3    47    44    1
     4    44    45    1
     5    44    15    1
     6    26    25    1
     7    22    25    2
     8    22    27    1
     9    25    42    1
    10    15    27    2
    11    15     9    1
    12    27    10    1
    13    18    17    1
    14    42    43    1
    15    42    32    2
    16    35    34    1
    17     9    11    1
    18     9     1    1
    19    11    16    2
    20    10    32    1
    21    10     1    1
    22    17    34    1
    23    17     6    1
    24    34    20    2
    25    32    33    1
    26    16     3    1
    27    16     7    1
    28     6     1    1
    29     6    24    1
    30     1    12    1
    31     1     7    1
    32     1     5    1
    33     3    48    1
    34    20    21    1
    35    20    36    1
    36    13    12    1
    37    12    19    1
    38    39    38    1
    39     7     8    1
    40    24    36    2
    41    24    14    1
    42    36    37    1
    43    41    38    1
    44    38    40    1
    45    38     2    1
    46     5    14    1
    47     5     4    1
    48    19     4    2
    49    19     2    1
    50    48    50    1
    51    48    49    1
    52    48    51    1
    53    14    28    1
    54    30    28    1
    55    28    29    1
    56    28    31    1
