@<TRIPOS>MOLECULE
CSD_code = DEDSIQ | q = 1 | S = 0 | Stoichiometry = C14H20CoN8O4S2(1+) | MND = 6
 49 54 0 0 0
SMALL
GASTEIGER

@<TRIPOS>ATOM
      1 CO          2.7866    2.9633   15.8150 Co.oh   1  UNL1        0.0000
      2 S           3.8429    2.2317   19.9309 S.3     1  UNL1        0.0000
      3 S           1.6423    2.4753   11.6875 S.3     1  UNL1        0.0000
      4 N           3.3221    2.9809   17.5202 N.pl3   1  UNL1        0.0000
      5 N           4.2631    0.8420   17.7211 N.2     1  UNL1        0.0000
      6 N           3.9480    1.5101   15.4747 N.3     1  UNL1        0.0000
      7 H           4.2358    1.2578   14.5341 H       1  UNL1        0.0000
      8 N           5.0888   -0.4257   16.0577 N.3     1  UNL1        0.0000
      9 H           5.3240   -0.6475   15.1058 H       1  UNL1        0.0000
     10 H           5.4699   -0.9851   16.8025 H       1  UNL1        0.0000
     11 N           2.2666    3.0978   14.1099 N.pl3   1  UNL1        0.0000
     12 N           0.9748    1.1540   13.8783 N.2     1  UNL1        0.0000
     13 N           1.3924    1.7267   16.1342 N.3     1  UNL1        0.0000
     14 H           1.0608    1.5168   17.0708 H       1  UNL1        0.0000
     15 N          -0.0685    0.0295   15.5224 N.3     1  UNL1        0.0000
     16 H          -0.3432   -0.1599   16.4707 H       1  UNL1        0.0000
     17 H          -0.5382   -0.4448   14.7692 H       1  UNL1        0.0000
     18 O           1.6902    4.3975   16.3672 O.3     1  UNL1        0.0000
     19 O           1.2702    5.7554   18.0937 O.2     1  UNL1        0.0000
     20 O           4.1138    4.1970   15.2849 O.3     1  UNL1        0.0000
     21 O           4.7662    5.4882   13.5797 O.2     1  UNL1        0.0000
     22 C           3.0545    3.9217   19.7427 C.3     1  UNL1        0.0000
     23 C           3.1253    4.1808   18.2335 C.3     1  UNL1        0.0000
     24 H           3.9075    4.9131   17.9792 H       1  UNL1        0.0000
     25 C           1.8547    4.8867   17.5193 C.2     1  UNL1        0.0000
     26 C           3.8400    4.9521   20.5355 C.3     1  UNL1        0.0000
     27 H           3.4026    5.9354   20.3745 H       1  UNL1        0.0000
     28 H           4.8835    4.9757   20.2301 H       1  UNL1        0.0000
     29 H           3.7968    4.7253   21.5973 H       1  UNL1        0.0000
     30 C           1.6247    3.7995   20.2602 C.3     1  UNL1        0.0000
     31 H           1.6347    3.4805   21.2992 H       1  UNL1        0.0000
     32 H           1.0532    3.0779   19.6791 H       1  UNL1        0.0000
     33 H           1.1309    4.7666   20.1941 H       1  UNL1        0.0000
     34 C           3.7943    1.9475   18.2234 C.2     1  UNL1        0.0000
     35 C           4.4098    0.6779   16.3918 C.3     1  UNL1        0.0000
     36 C           2.7098    4.0013   11.9001 C.3     1  UNL1        0.0000
     37 C           2.6719    4.2535   13.4117 C.3     1  UNL1        0.0000
     38 H           2.0250    5.1066   13.6693 H       1  UNL1        0.0000
     39 C           4.0400    4.7231   14.1398 C.2     1  UNL1        0.0000
     40 C           2.1219    5.1600   11.1134 C.3     1  UNL1        0.0000
     41 H           1.0957    5.3616   11.4120 H       1  UNL1        0.0000
     42 H           2.1341    4.9392   10.0495 H       1  UNL1        0.0000
     43 H           2.7220    6.0508   11.2880 H       1  UNL1        0.0000
     44 C           4.1014    3.6383   11.3914 C.3     1  UNL1        0.0000
     45 H           4.7542    4.5050   11.4702 H       1  UNL1        0.0000
     46 H           4.0455    3.3345   10.3493 H       1  UNL1        0.0000
     47 H           4.5348    2.8241   11.9696 H       1  UNL1        0.0000
     48 C           1.6296    2.1683   13.3918 C.2     1  UNL1        0.0000
     49 C           0.7952    1.0011   15.2049 C.3     1  UNL1        0.0000
@<TRIPOS>BOND
     1    42    40    1
     2    46    44    1
     3    40    43    1
     4    40    41    1
     5    40    36    1
     6    44    45    1
     7    44    36    1
     8    44    47    1
     9     3    36    1
    10     3    48    1
    11    36    37    1
    12    48    12    2
    13    48    11    1
    14    37    38    1
    15    37    11    1
    16    37    39    1
    17    21    39    2
    18    12    49    1
    19    11     1    1
    20    39    20    1
    21     7     6    1
    22    17    15    1
    23     9     8    1
    24    49    15    1
    25    49    13    1
    26    20     1    1
    27     6     1    1
    28     6    35    1
    29    15    16    1
    30     1    13    1
    31     1    18    1
    32     1     4    1
    33     8    35    1
    34     8    10    1
    35    13    14    1
    36    18    25    1
    37    35     5    1
    38    25    19    2
    39    25    23    1
    40     4    34    1
    41     4    23    1
    42     5    34    2
    43    24    23    1
    44    34     2    1
    45    23    22    1
    46    32    30    1
    47    22     2    1
    48    22    30    1
    49    22    26    1
    50    33    30    1
    51    28    26    1
    52    30    31    1
    53    27    26    1
    54    26    29    1
