@<TRIPOS>MOLECULE
CSD_code = DETKET | q = 1 | S = 0 | Stoichiometry = C28H24CoN2O4(1+) | MND = 6
 59 64 0 0 0
SMALL
GASTEIGER

@<TRIPOS>ATOM
      1 CO          2.9802    0.0288    3.1664 Co.oh   1  UNL1        0.0000
      2 O           2.8169   -1.3802    4.7150 O.3     1  UNL1        0.0000
      3 O           3.0196    1.1969    1.7544 O.3     1  UNL1        0.0000
      4 O           4.5898   -1.0194    2.3874 O.3     1  UNL1        0.0000
      5 O           1.6387    0.9904    3.9681 O.3     1  UNL1        0.0000
      6 N           4.2390    1.0642    4.1366 N.pl3   1  UNL1        0.0000
      7 N           1.7137   -1.0037    2.1590 N.pl3   1  UNL1        0.0000
      8 C           3.2845   -0.9095    5.9919 C.3     1  UNL1        0.0000
      9 C           4.7424   -0.5721    5.8794 C.ar    1  UNL1        0.0000
     10 C           5.6849   -1.2128    6.6699 C.ar    1  UNL1        0.0000
     11 C           7.0280   -0.8890    6.5795 C.ar    1  UNL1        0.0000
     12 C           7.4423    0.0781    5.6786 C.ar    1  UNL1        0.0000
     13 C           6.5173    0.7204    4.8780 C.ar    1  UNL1        0.0000
     14 C           5.1590    0.4108    4.9720 C.ar    1  UNL1        0.0000
     15 C           4.3367    2.3495    3.9945 C.3     1  UNL1        0.0000
     16 C           3.6610    3.1232    3.0207 C.ar    1  UNL1        0.0000
     17 C           3.6635    4.5287    3.1011 C.ar    1  UNL1        0.0000
     18 C           3.0651    5.2916    2.1334 C.ar    1  UNL1        0.0000
     19 C           2.4616    4.6664    1.0375 C.ar    1  UNL1        0.0000
     20 C           2.4475    3.2999    0.9227 C.ar    1  UNL1        0.0000
     21 C           3.0341    2.4818    1.9122 C.ar    1  UNL1        0.0000
     22 C           4.3126   -1.6209    1.1173 C.3     1  UNL1        0.0000
     23 C           3.2510   -2.6752    1.2484 C.ar    1  UNL1        0.0000
     24 C           3.4939   -3.9908    0.8830 C.ar    1  UNL1        0.0000
     25 C           2.5176   -4.9620    1.0260 C.ar    1  UNL1        0.0000
     26 C           1.2846   -4.6219    1.5569 C.ar    1  UNL1        0.0000
     27 C           1.0278   -3.3166    1.9310 C.ar    1  UNL1        0.0000
     28 C           2.0002   -2.3275    1.7751 C.ar    1  UNL1        0.0000
     29 C           0.5816   -0.4968    1.7767 C.3     1  UNL1        0.0000
     30 C           0.0356    0.7361    2.2109 C.ar    1  UNL1        0.0000
     31 C          -1.1069    1.2608    1.5774 C.ar    1  UNL1        0.0000
     32 C          -1.6798    2.4284    2.0085 C.ar    1  UNL1        0.0000
     33 C          -1.1338    3.1005    3.1062 C.ar    1  UNL1        0.0000
     34 C          -0.0242    2.6152    3.7509 C.ar    1  UNL1        0.0000
     35 C           0.6041    1.4294    3.3188 C.ar    1  UNL1        0.0000
     36 H           1.8891   -1.6248    4.8306 H       1  UNL1        0.0000
     37 H           3.1363   -1.6999    6.7352 H       1  UNL1        0.0000
     38 H           2.7110   -0.0206    6.2834 H       1  UNL1        0.0000
     39 H           5.3604   -1.9646    7.3735 H       1  UNL1        0.0000
     40 H           7.7468   -1.3923    7.2061 H       1  UNL1        0.0000
     41 H           8.4875    0.3317    5.5962 H       1  UNL1        0.0000
     42 H           6.8391    1.4558    4.1558 H       1  UNL1        0.0000
     43 H           5.0060    2.8911    4.6630 H       1  UNL1        0.0000
     44 H           4.1380    4.9967    3.9511 H       1  UNL1        0.0000
     45 H           3.0609    6.3669    2.2085 H       1  UNL1        0.0000
     46 H           1.9930    5.2681    0.2735 H       1  UNL1        0.0000
     47 H           1.9872    2.8122    0.0777 H       1  UNL1        0.0000
     48 H           4.9436   -1.7074    2.9695 H       1  UNL1        0.0000
     49 H           5.2361   -2.0438    0.7087 H       1  UNL1        0.0000
     50 H           3.9765   -0.7989    0.4790 H       1  UNL1        0.0000
     51 H           4.4565   -4.2527    0.4696 H       1  UNL1        0.0000
     52 H           2.7209   -5.9788    0.7309 H       1  UNL1        0.0000
     53 H           0.5205   -5.3730    1.6817 H       1  UNL1        0.0000
     54 H           0.0709   -3.0546    2.3599 H       1  UNL1        0.0000
     55 H          -0.0235   -1.0654    1.0702 H       1  UNL1        0.0000
     56 H          -1.5202    0.7288    0.7330 H       1  UNL1        0.0000
     57 H          -2.5479    2.8288    1.5103 H       1  UNL1        0.0000
     58 H          -1.5863    4.0192    3.4470 H       1  UNL1        0.0000
     59 H           0.4027    3.1280    4.5986 H       1  UNL1        0.0000
@<TRIPOS>BOND
     1    47    20    1
     2    46    19    1
     3    51    24    1
     4    50    22    1
     5    49    22    1
     6    52    25    1
     7    56    31    1
     8    24    25   ar
     9    24    23   ar
    10    20    19   ar
    11    20    21   ar
    12    25    26   ar
    13    19    18   ar
    14    55    29    1
    15    22    23    1
    16    22     4    1
    17    23    28   ar
    18    57    32    1
    19    26    53    1
    20    26    27   ar
    21    31    32   ar
    22    31    30   ar
    23     3    21    1
    24     3     1    1
    25    28    27   ar
    26    28     7    1
    27    29     7    1
    28    29    30    1
    29    21    16   ar
    30    27    54    1
    31    32    33   ar
    32    18    45    1
    33    18    17   ar
    34     7     1    1
    35    30    35   ar
    36     4    48    1
    37    16    17   ar
    38    16    15    1
    39    17    44    1
    40    33    58    1
    41    33    34   ar
    42     1     5    1
    43     1     6    1
    44    35    34   ar
    45    35     5    1
    46    34    59    1
    47    15     6    1
    48    15    43    1
    49     6    14    1
    50    42    13    1
    51     2    36    1
    52     2     8    1
    53    13    14   ar
    54    13    12   ar
    55    14     9   ar
    56    41    12    1
    57    12    11   ar
    58     9     8    1
    59     9    10   ar
    60     8    38    1
    61     8    37    1
    62    11    10   ar
    63    11    40    1
    64    10    39    1
