@<TRIPOS>MOLECULE
CSD_code = DIDTOC | q = 0 | S = 0 | Stoichiometry = C28H49CoN2O2P2 | MND = 5
 84 86 0 0 0
SMALL
GASTEIGER

@<TRIPOS>ATOM
      1 CO          3.7433    1.2733    4.4048 Co.oh   1  UNL1        0.0000
      2 P           5.6127    0.1218    4.6201 P.3     1  UNL1        0.0000
      3 P           2.7234    2.9986    3.4804 P.3     1  UNL1        0.0000
      4 O           6.7186    1.1418    5.2216 O.3     1  UNL1        0.0000
      5 O           3.3190    4.3008    4.2488 O.3     1  UNL1        0.0000
      6 N           2.2951   -0.9074    3.0293 N.3     1  UNL1        0.0000
      7 N           1.8526    0.7548    6.6932 N.3     1  UNL1        0.0000
      8 C           4.9546    2.6993    4.8750 C.ar    1  UNL1        0.0000
      9 C           6.2579    2.4541    5.2959 C.ar    1  UNL1        0.0000
     10 C           7.1026    3.4618    5.7284 C.ar    1  UNL1        0.0000
     11 H           8.1039    3.2239    6.0555 H       1  UNL1        0.0000
     12 C           6.6444    4.7697    5.7202 C.ar    1  UNL1        0.0000
     13 H           7.2901    5.5653    6.0603 H       1  UNL1        0.0000
     14 C           5.3771    5.0687    5.2428 C.ar    1  UNL1        0.0000
     15 H           5.0291    6.0894    5.1861 H       1  UNL1        0.0000
     16 C           4.5637    4.0342    4.8170 C.ar    1  UNL1        0.0000
     17 C           6.5806   -0.6592    3.2177 C.3     1  UNL1        0.0000
     18 H           6.0841   -1.6085    2.9848 H       1  UNL1        0.0000
     19 C           8.0446   -0.9058    3.5587 C.3     1  UNL1        0.0000
     20 H           8.5835   -1.2263    2.6678 H       1  UNL1        0.0000
     21 H           8.1598   -1.6769    4.3165 H       1  UNL1        0.0000
     22 H           8.5029    0.0101    3.9254 H       1  UNL1        0.0000
     23 C           6.4535    0.2721    2.0175 C.3     1  UNL1        0.0000
     24 H           6.9296   -0.1537    1.1348 H       1  UNL1        0.0000
     25 H           6.9285    1.2278    2.2386 H       1  UNL1        0.0000
     26 H           5.4014    0.4529    1.7967 H       1  UNL1        0.0000
     27 C           5.7033   -1.2273    5.9085 C.3     1  UNL1        0.0000
     28 H           6.7099   -1.6588    5.8824 H       1  UNL1        0.0000
     29 C           5.4608   -0.6206    7.2843 C.3     1  UNL1        0.0000
     30 H           5.4491   -1.3967    8.0494 H       1  UNL1        0.0000
     31 H           4.5052   -0.0979    7.2978 H       1  UNL1        0.0000
     32 H           6.2432    0.0944    7.5290 H       1  UNL1        0.0000
     33 C           4.6703   -2.3002    5.5939 C.3     1  UNL1        0.0000
     34 H           4.6933   -3.0890    6.3455 H       1  UNL1        0.0000
     35 H           4.8564   -2.7500    4.6200 H       1  UNL1        0.0000
     36 H           3.6761   -1.8558    5.5810 H       1  UNL1        0.0000
     37 C           2.9329    3.5371    1.6993 C.3     1  UNL1        0.0000
     38 H           2.3949    4.4787    1.5493 H       1  UNL1        0.0000
     39 C           4.4227    3.7687    1.4711 C.3     1  UNL1        0.0000
     40 H           4.6216    4.0009    0.4253 H       1  UNL1        0.0000
     41 H           4.9845    2.8750    1.7420 H       1  UNL1        0.0000
     42 H           4.7850    4.5940    2.0815 H       1  UNL1        0.0000
     43 C           2.4047    2.4603    0.7628 C.3     1  UNL1        0.0000
     44 H           2.6599    2.6917   -0.2710 H       1  UNL1        0.0000
     45 H           1.3235    2.3678    0.8353 H       1  UNL1        0.0000
     46 H           2.8495    1.5008    1.0250 H       1  UNL1        0.0000
     47 C           0.9310    3.3214    3.8877 C.3     1  UNL1        0.0000
     48 H           0.9728    3.3845    4.9848 H       1  UNL1        0.0000
     49 C           0.0295    2.1532    3.5134 C.3     1  UNL1        0.0000
     50 H          -0.9455    2.2569    3.9902 H       1  UNL1        0.0000
     51 H           0.4845    1.2182    3.8351 H       1  UNL1        0.0000
     52 H          -0.1274    2.1067    2.4382 H       1  UNL1        0.0000
     53 C           0.4074    4.6467    3.3486 C.3     1  UNL1        0.0000
     54 H          -0.5339    4.9016    3.8351 H       1  UNL1        0.0000
     55 H           0.2262    4.5895    2.2773 H       1  UNL1        0.0000
     56 H           1.1221    5.4427    3.5466 H       1  UNL1        0.0000
     57 C           2.8326   -0.0385    3.6107 C.3     1  UNL1        0.0000
     58 C           1.7797   -1.9364    2.2190 C.3     1  UNL1        0.0000
     59 C           1.1704   -3.0093    3.1291 C.3     1  UNL1        0.0000
     60 H           0.3583   -2.5885    3.7182 H       1  UNL1        0.0000
     61 H           1.9255   -3.3996    3.8083 H       1  UNL1        0.0000
     62 H           0.7805   -3.8280    2.5298 H       1  UNL1        0.0000
     63 C           2.9292   -2.5249    1.3921 C.3     1  UNL1        0.0000
     64 H           3.6927   -2.9352    2.0493 H       1  UNL1        0.0000
     65 H           3.3849   -1.7531    0.7758 H       1  UNL1        0.0000
     66 H           2.5577   -3.3172    0.7471 H       1  UNL1        0.0000
     67 C           0.7070   -1.3399    1.3005 C.3     1  UNL1        0.0000
     68 H          -0.0897   -0.8929    1.8914 H       1  UNL1        0.0000
     69 H           0.2829   -2.1169    0.6695 H       1  UNL1        0.0000
     70 H           1.1394   -0.5687    0.6671 H       1  UNL1        0.0000
     71 C           2.7563    1.1526    6.0631 C.3     1  UNL1        0.0000
     72 C           0.7746    0.2217    7.4271 C.3     1  UNL1        0.0000
     73 C          -0.1633    1.3704    7.8111 C.3     1  UNL1        0.0000
     74 H          -0.5366    1.8654    6.9172 H       1  UNL1        0.0000
     75 H           0.3663    2.1034    8.4156 H       1  UNL1        0.0000
     76 H          -1.0070    0.9884    8.3807 H       1  UNL1        0.0000
     77 C           1.3378   -0.4611    8.6786 C.3     1  UNL1        0.0000
     78 H           2.0171   -1.2628    8.3964 H       1  UNL1        0.0000
     79 H           0.5280   -0.8786    9.2718 H       1  UNL1        0.0000
     80 H           1.8855    0.2558    9.2864 H       1  UNL1        0.0000
     81 C           0.0480   -0.7966    6.5408 C.3     1  UNL1        0.0000
     82 H          -0.3376   -0.3099    5.6477 H       1  UNL1        0.0000
     83 H          -0.7806   -1.2415    7.0861 H       1  UNL1        0.0000
     84 H           0.7340   -1.5840    6.2360 H       1  UNL1        0.0000
@<TRIPOS>BOND
     1    44    43    1
     2    40    39    1
     3    70    67    1
     4    69    67    1
     5    66    63    1
     6    43    45    1
     7    43    46    1
     8    43    37    1
     9    65    63    1
    10    24    23    1
    11    67    68    1
    12    67    58    1
    13    63    64    1
    14    63    58    1
    15    39    37    1
    16    39    41    1
    17    39    42    1
    18    38    37    1
    19    37     3    1
    20    26    23    1
    21    23    25    1
    22    23    17    1
    23    58     6    1
    24    58    59    1
    25    55    53    1
    26    52    49    1
    27    62    59    1
    28    20    19    1
    29    18    17    1
    30     6    57    1
    31    59    60    1
    32    59    61    1
    33    17    19    1
    34    17     2    1
    35    53    56    1
    36    53    54    1
    37    53    47    1
    38     3    47    1
    39     3     5    1
    40     3     1    1
    41    49    51    1
    42    49    47    1
    43    49    50    1
    44    19    22    1
    45    19    21    1
    46    57     1    1
    47    47    48    1
    48     5    16    1
    49     1     2    1
    50     1     8    1
    51     1    71    1
    52    35    33    1
    53     2     4    1
    54     2    27    1
    55    16     8   ar
    56    16    14   ar
    57     8     9   ar
    58    15    14    1
    59     4     9    1
    60    14    12   ar
    61     9    10   ar
    62    36    33    1
    63    33    27    1
    64    33    34    1
    65    82    81    1
    66    12    10   ar
    67    12    13    1
    68    10    11    1
    69    28    27    1
    70    27    29    1
    71    71     7    1
    72    84    81    1
    73    81    83    1
    74    81    72    1
    75     7    72    1
    76    74    73    1
    77    29    31    1
    78    29    32    1
    79    29    30    1
    80    72    73    1
    81    72    77    1
    82    73    76    1
    83    73    75    1
    84    78    77    1
    85    77    79    1
    86    77    80    1
