@<TRIPOS>MOLECULE
CSD_code = DIDTIW | q = 0 | S = 0 | Stoichiometry = C24H40CoNO3P2 | MND = 5
 71 73 0 0 0
SMALL
GASTEIGER

@<TRIPOS>ATOM
      1 CO          4.1998    4.8506    4.4320 Co.oh   1  UNL1        0.0000
      2 P           4.7843    6.9317    3.8332 P.3     1  UNL1        0.0000
      3 P           2.4522    3.9529    5.5226 P.3     1  UNL1        0.0000
      4 O           4.0097    7.1323    2.4116 O.3     1  UNL1        0.0000
      5 O           1.3743    3.7185    4.3242 O.3     1  UNL1        0.0000
      6 O           4.4990    3.2326    2.0058 O.3     1  UNL1        0.0000
      7 N           6.1780    4.4558    6.6025 N.3     1  UNL1        0.0000
      8 C           2.7761    5.2793    3.2230 C.ar    1  UNL1        0.0000
      9 C           2.8918    6.3146    2.3018 C.ar    1  UNL1        0.0000
     10 C           1.9074    6.5729    1.3635 C.ar    1  UNL1        0.0000
     11 H           2.0356    7.3780    0.6564 H       1  UNL1        0.0000
     12 C           0.7603    5.7943    1.3655 C.ar    1  UNL1        0.0000
     13 H          -0.0089    5.9759    0.6306 H       1  UNL1        0.0000
     14 C           0.5643    4.8233    2.3361 C.ar    1  UNL1        0.0000
     15 H          -0.3566    4.2626    2.3876 H       1  UNL1        0.0000
     16 C           1.5671    4.5922    3.2613 C.ar    1  UNL1        0.0000
     17 C           6.4844    7.3288    3.2031 C.3     1  UNL1        0.0000
     18 H           6.4066    8.2661    2.6405 H       1  UNL1        0.0000
     19 C           7.4830    7.4618    4.3433 C.3     1  UNL1        0.0000
     20 H           8.4939    7.5622    3.9496 H       1  UNL1        0.0000
     21 H           7.4427    6.5719    4.9680 H       1  UNL1        0.0000
     22 H           7.2741    8.3315    4.9612 H       1  UNL1        0.0000
     23 C           6.9054    6.2125    2.2538 C.3     1  UNL1        0.0000
     24 H           7.8764    6.4327    1.8121 H       1  UNL1        0.0000
     25 H           6.1799    6.0980    1.4509 H       1  UNL1        0.0000
     26 H           6.9732    5.2682    2.7934 H       1  UNL1        0.0000
     27 C           4.2063    8.4830    4.7187 C.3     1  UNL1        0.0000
     28 H           3.1121    8.3897    4.6317 H       1  UNL1        0.0000
     29 C           4.6234    9.7810    4.0414 C.3     1  UNL1        0.0000
     30 H           4.0699   10.6173    4.4675 H       1  UNL1        0.0000
     31 H           4.4067    9.7357    2.9755 H       1  UNL1        0.0000
     32 H           5.6849    9.9754    4.1770 H       1  UNL1        0.0000
     33 C           4.5690    8.4402    6.1973 C.3     1  UNL1        0.0000
     34 H           3.9817    9.1668    6.7570 H       1  UNL1        0.0000
     35 H           5.6215    8.6654    6.3508 H       1  UNL1        0.0000
     36 H           4.3714    7.4461    6.5994 H       1  UNL1        0.0000
     37 C           2.4993    2.2027    6.1359 C.3     1  UNL1        0.0000
     38 H           1.4599    1.8623    6.2075 H       1  UNL1        0.0000
     39 C           3.2286    1.3482    5.1065 C.3     1  UNL1        0.0000
     40 H           3.2173    0.2995    5.4008 H       1  UNL1        0.0000
     41 H           4.2643    1.6741    5.0130 H       1  UNL1        0.0000
     42 H           2.7519    1.4379    4.1321 H       1  UNL1        0.0000
     43 C           3.1889    2.1258    7.4904 C.3     1  UNL1        0.0000
     44 H           3.2821    1.0887    7.8109 H       1  UNL1        0.0000
     45 H           2.6364    2.6709    8.2529 H       1  UNL1        0.0000
     46 H           4.1865    2.5540    7.4114 H       1  UNL1        0.0000
     47 C           1.3749    4.8066    6.8014 C.3     1  UNL1        0.0000
     48 H           1.9827    4.8994    7.7084 H       1  UNL1        0.0000
     49 C           0.0821    4.0598    7.1025 C.3     1  UNL1        0.0000
     50 H          -0.5885    4.6978    7.6773 H       1  UNL1        0.0000
     51 H           0.2628    3.1559    7.6793 H       1  UNL1        0.0000
     52 H          -0.4178    3.7891    6.1741 H       1  UNL1        0.0000
     53 C           1.0859    6.2039    6.2620 C.3     1  UNL1        0.0000
     54 H           0.5869    6.8176    7.0108 H       1  UNL1        0.0000
     55 H           0.4460    6.1446    5.3819 H       1  UNL1        0.0000
     56 H           2.0164    6.6932    5.9729 H       1  UNL1        0.0000
     57 C           5.4274    4.5832    5.7112 C.3     1  UNL1        0.0000
     58 C           6.9719    4.3652    7.7628 C.3     1  UNL1        0.0000
     59 C           6.1261    4.8151    8.9600 C.3     1  UNL1        0.0000
     60 H           5.2526    4.1762    9.0693 H       1  UNL1        0.0000
     61 H           5.7883    5.8395    8.8186 H       1  UNL1        0.0000
     62 H           6.7160    4.7616    9.8713 H       1  UNL1        0.0000
     63 C           7.4196    2.9091    7.9304 C.3     1  UNL1        0.0000
     64 H           7.9847    2.5853    7.0594 H       1  UNL1        0.0000
     65 H           6.5574    2.2557    8.0440 H       1  UNL1        0.0000
     66 H           8.0480    2.8142    8.8122 H       1  UNL1        0.0000
     67 C           8.1878    5.2821    7.5929 C.3     1  UNL1        0.0000
     68 H           8.7672    4.9860    6.7211 H       1  UNL1        0.0000
     69 H           8.8234    5.2197    8.4723 H       1  UNL1        0.0000
     70 H           7.8687    6.3141    7.4644 H       1  UNL1        0.0000
     71 C           4.5540    3.7660    3.0240 C.3     1  UNL1        0.0000
@<TRIPOS>BOND
     1    13    12    1
     2    11    10    1
     3    10    12   ar
     4    10     9   ar
     5    12    14   ar
     6    25    23    1
     7    24    23    1
     8     6    71    1
     9    23    26    1
    10    23    17    1
    11     9     4    1
    12     9     8   ar
    13    14    15    1
    14    14    16   ar
    15     4     2    1
    16    18    17    1
    17    31    29    1
    18    71     1    1
    19    17     2    1
    20    17    19    1
    21     8    16   ar
    22     8     1    1
    23    16     5    1
    24     2     1    1
    25     2    27    1
    26    20    19    1
    27    29    32    1
    28    29    30    1
    29    29    27    1
    30    42    39    1
    31     5     3    1
    32    19    22    1
    33    19    21    1
    34     1     3    1
    35     1    57    1
    36    28    27    1
    37    27    33    1
    38    41    39    1
    39    39    40    1
    40    39    37    1
    41    55    53    1
    42     3    37    1
    43     3    47    1
    44    57     7    1
    45    56    53    1
    46    37    38    1
    47    37    43    1
    48    52    49    1
    49    33    35    1
    50    33    36    1
    51    33    34    1
    52    53    47    1
    53    53    54    1
    54     7    58    1
    55    68    67    1
    56    47    49    1
    57    47    48    1
    58    64    63    1
    59    49    50    1
    60    49    51    1
    61    46    43    1
    62    70    67    1
    63    43    44    1
    64    43    45    1
    65    67    58    1
    66    67    69    1
    67    58    63    1
    68    58    59    1
    69    63    65    1
    70    63    66    1
    71    61    59    1
    72    59    60    1
    73    59    62    1
