@<TRIPOS>MOLECULE
CSD_code = DIWWIP | q = -1 | S = 0 | Stoichiometry = C24H16CoO4Se2(1-) | MND = 6
 47 52 0 0 0
SMALL
GASTEIGER

@<TRIPOS>ATOM
      1 CO          3.8768    3.2968    6.3985 Co.oh   1  UNL1        0.0000
      2 SE          2.2034    4.8792    7.1530 Se      1  UNL1        0.0000
      3 SE          4.6499    4.5320    4.4619 Se      1  UNL1        0.0000
      4 O           3.3746    2.2311    7.8746 O.3     1  UNL1        0.0000
      5 O           2.5572    2.4933    5.2981 O.3     1  UNL1        0.0000
      6 O           5.1392    1.9759    5.9210 O.3     1  UNL1        0.0000
      7 O           5.1585    4.2231    7.4459 O.3     1  UNL1        0.0000
      8 C           2.0103    3.9286    8.8186 C.ar    1  UNL1        0.0000
      9 C           2.6795    2.6835    8.8552 C.ar    1  UNL1        0.0000
     10 C           2.5173    1.9371   10.0461 C.ar    1  UNL1        0.0000
     11 C           1.7663    2.4205   11.0911 C.ar    1  UNL1        0.0000
     12 C           1.1367    3.6592   11.0242 C.ar    1  UNL1        0.0000
     13 C           1.2620    4.4158    9.8734 C.ar    1  UNL1        0.0000
     14 C           0.8516    3.9291    6.1362 C.ar    1  UNL1        0.0000
     15 C           1.3157    2.8358    5.3660 C.ar    1  UNL1        0.0000
     16 C           0.3323    2.1402    4.6266 C.ar    1  UNL1        0.0000
     17 C          -0.9906    2.5093    4.6743 C.ar    1  UNL1        0.0000
     18 C          -1.4142    3.5845    5.4479 C.ar    1  UNL1        0.0000
     19 C          -0.4813    4.2961    6.1782 C.ar    1  UNL1        0.0000
     20 C           5.6260    2.9935    3.8328 C.ar    1  UNL1        0.0000
     21 C           5.6932    1.9309    4.7632 C.ar    1  UNL1        0.0000
     22 C           6.4404    0.8027    4.3501 C.ar    1  UNL1        0.0000
     23 C           7.0393    0.7612    3.1134 C.ar    1  UNL1        0.0000
     24 C           6.9368    1.8209    2.2181 C.ar    1  UNL1        0.0000
     25 C           6.2229    2.9464    2.5873 C.ar    1  UNL1        0.0000
     26 C           6.0525    5.3324    5.5370 C.ar    1  UNL1        0.0000
     27 C           6.0472    4.9891    6.9104 C.ar    1  UNL1        0.0000
     28 C           7.0689    5.5701    7.6954 C.ar    1  UNL1        0.0000
     29 C           8.0081    6.4057    7.1402 C.ar    1  UNL1        0.0000
     30 C           7.9886    6.7168    5.7849 C.ar    1  UNL1        0.0000
     31 C           6.9999    6.1756    4.9852 C.ar    1  UNL1        0.0000
     32 H           3.0078    0.9772   10.1054 H       1  UNL1        0.0000
     33 H           1.6672    1.8240   11.9892 H       1  UNL1        0.0000
     34 H           0.5566    4.0255   11.8589 H       1  UNL1        0.0000
     35 H           0.7829    5.3827    9.7846 H       1  UNL1        0.0000
     36 H           0.6593    1.3040    4.0264 H       1  UNL1        0.0000
     37 H          -1.7165    1.9497    4.0981 H       1  UNL1        0.0000
     38 H          -2.4581    3.8614    5.4777 H       1  UNL1        0.0000
     39 H          -0.7770    5.1390    6.7890 H       1  UNL1        0.0000
     40 H           6.5189   -0.0248    5.0390 H       1  UNL1        0.0000
     41 H           7.5997   -0.1203    2.8285 H       1  UNL1        0.0000
     42 H           7.4085    1.7667    1.2475 H       1  UNL1        0.0000
     43 H           6.1246    3.7913    1.9174 H       1  UNL1        0.0000
     44 H           7.0866    5.3285    8.7479 H       1  UNL1        0.0000
     45 H           8.7788    6.8285    7.7720 H       1  UNL1        0.0000
     46 H           8.7350    7.3736    5.3619 H       1  UNL1        0.0000
     47 H           6.9546    6.3989    3.9272 H       1  UNL1        0.0000
@<TRIPOS>BOND
     1    42    24    1
     2    43    25    1
     3    24    25   ar
     4    24    23   ar
     5    25    20   ar
     6    41    23    1
     7    23    22   ar
     8    20     3    1
     9    20    21   ar
    10    47    31    1
    11    36    16    1
    12    37    17    1
    13    22    21   ar
    14    22    40    1
    15     3    26    1
    16    16    17   ar
    17    16    15   ar
    18    17    18   ar
    19    21     6    1
    20    31    26   ar
    21    31    30   ar
    22     5    15    1
    23     5     1    1
    24    46    30    1
    25    15    14   ar
    26    18    38    1
    27    18    19   ar
    28    26    27   ar
    29    30    29   ar
    30     6     1    1
    31    14    19   ar
    32    14     2    1
    33    19    39    1
    34     1     7    1
    35     1     4    1
    36    27     7    1
    37    27    28   ar
    38    29    28   ar
    39    29    45    1
    40     2     8    1
    41    28    44    1
    42     4     9    1
    43     8     9   ar
    44     8    13   ar
    45     9    10   ar
    46    35    13    1
    47    13    12   ar
    48    10    32    1
    49    10    11   ar
    50    12    11   ar
    51    12    34    1
    52    11    33    1
