@<TRIPOS>MOLECULE
CSD_code = DOFBUX | q = 0 | S = 0 | Stoichiometry = C24H44BCoN4P2 | MND = 4
 76 79 0 0 0
SMALL
GASTEIGER

@<TRIPOS>ATOM
      1 CO          6.0944    4.7211    1.0402 Co.oh   1  UNL1        0.0000
      2 P           4.3399    3.5565    1.6769 P.3     1  UNL1        0.0000
      3 P           7.4089    6.4812    0.8981 P.3     1  UNL1        0.0000
      4 N           5.6378    7.2708    2.6031 N.pl3   1  UNL1        0.0000
      5 N           3.8762    5.8581    2.7535 N.pl3   1  UNL1        0.0000
      6 C           3.0797    4.6995    2.4843 C.3     1  UNL1        0.0000
      7 H           2.2665    4.9413    1.7865 H       1  UNL1        0.0000
      8 H           2.6312    4.2727    3.3896 H       1  UNL1        0.0000
      9 C           6.9395    7.7313    2.2255 C.3     1  UNL1        0.0000
     10 H           7.6330    7.6788    3.0759 H       1  UNL1        0.0000
     11 H           6.9335    8.7646    1.8579 H       1  UNL1        0.0000
     12 C           3.5736    6.9862    3.4728 C.ar    1  UNL1        0.0000
     13 C           4.6598    9.0931    4.0302 C.ar    1  UNL1        0.0000
     14 H           5.5012    9.7694    3.9717 H       1  UNL1        0.0000
     15 C           4.6844    7.8693    3.3867 C.ar    1  UNL1        0.0000
     16 C           3.2915    2.7213    0.3356 C.3     1  UNL1        0.0000
     17 C           7.0654    7.4525   -0.6885 C.3     1  UNL1        0.0000
     18 C           4.7570    2.3784    3.0965 C.3     1  UNL1        0.0000
     19 C           3.5265    9.4314    4.7549 C.ar    1  UNL1        0.0000
     20 H           3.4887   10.3834    5.2643 H       1  UNL1        0.0000
     21 B           5.1716    5.9948    2.1841 B       1  UNL1        0.0000
     22 C           9.2654    6.2671    1.2181 C.3     1  UNL1        0.0000
     23 C           3.6030    1.5076    3.5841 C.3     1  UNL1        0.0000
     24 H           3.8926    1.0086    4.5090 H       1  UNL1        0.0000
     25 H           3.3592    0.7376    2.8563 H       1  UNL1        0.0000
     26 H           2.7101    2.0950    3.7878 H       1  UNL1        0.0000
     27 C           2.4420    8.5705    4.8375 C.ar    1  UNL1        0.0000
     28 H           1.5737    8.8636    5.4097 H       1  UNL1        0.0000
     29 C           2.4508    7.3393    4.1986 C.ar    1  UNL1        0.0000
     30 H           1.6008    6.6748    4.2666 H       1  UNL1        0.0000
     31 C           7.9390    8.6842   -0.9054 C.3     1  UNL1        0.0000
     32 H           7.5458    9.2630   -1.7413 H       1  UNL1        0.0000
     33 H           8.9599    8.4025   -1.1508 H       1  UNL1        0.0000
     34 H           7.9525    9.3302   -0.0300 H       1  UNL1        0.0000
     35 C           5.2573    3.2774    4.2321 C.3     1  UNL1        0.0000
     36 H           5.6738    2.6677    5.0333 H       1  UNL1        0.0000
     37 H           4.4636    3.8892    4.6533 H       1  UNL1        0.0000
     38 H           6.0409    3.9401    3.8607 H       1  UNL1        0.0000
     39 C           5.9280    1.4978    2.6591 C.3     1  UNL1        0.0000
     40 H           6.2902    0.9129    3.5040 H       1  UNL1        0.0000
     41 H           6.7467    2.1197    2.2985 H       1  UNL1        0.0000
     42 H           5.6475    0.8100    1.8675 H       1  UNL1        0.0000
     43 C           9.9319    5.5798    0.0278 C.3     1  UNL1        0.0000
     44 H          10.9146    5.2087    0.3177 H       1  UNL1        0.0000
     45 H          10.0694    6.2705   -0.8006 H       1  UNL1        0.0000
     46 H           9.3396    4.7329   -0.3111 H       1  UNL1        0.0000
     47 N           6.9056    3.6214    0.0823 N.3     1  UNL1        0.0000
     48 C           3.2549    3.7894   -0.7639 C.3     1  UNL1        0.0000
     49 H           2.7352    3.4174   -1.6456 H       1  UNL1        0.0000
     50 H           4.2729    4.0596   -1.0521 H       1  UNL1        0.0000
     51 H           2.7463    4.6905   -0.4238 H       1  UNL1        0.0000
     52 C           9.2848    5.3052    2.4120 C.3     1  UNL1        0.0000
     53 H          10.3071    5.0336    2.6710 H       1  UNL1        0.0000
     54 H           8.7386    4.3933    2.1636 H       1  UNL1        0.0000
     55 H           8.8189    5.7529    3.2888 H       1  UNL1        0.0000
     56 C           5.5911    7.8610   -0.6022 C.3     1  UNL1        0.0000
     57 H           5.2673    8.2882   -1.5509 H       1  UNL1        0.0000
     58 H           5.4132    8.5983    0.1766 H       1  UNL1        0.0000
     59 H           4.9763    6.9842   -0.3915 H       1  UNL1        0.0000
     60 C          10.0368    7.5379    1.5700 C.3     1  UNL1        0.0000
     61 H          11.0681    7.2703    1.8011 H       1  UNL1        0.0000
     62 H           9.6240    8.0398    2.4408 H       1  UNL1        0.0000
     63 H          10.0541    8.2412    0.7436 H       1  UNL1        0.0000
     64 C           1.8655    2.3428    0.7318 C.3     1  UNL1        0.0000
     65 H           1.3533    1.9399   -0.1422 H       1  UNL1        0.0000
     66 H           1.2961    3.2001    1.0806 H       1  UNL1        0.0000
     67 H           1.8503    1.5818    1.5054 H       1  UNL1        0.0000
     68 C           7.2078    6.4947   -1.8721 C.3     1  UNL1        0.0000
     69 H           6.8622    6.9767   -2.7860 H       1  UNL1        0.0000
     70 H           6.6017    5.6047   -1.7044 H       1  UNL1        0.0000
     71 H           8.2367    6.1830   -2.0225 H       1  UNL1        0.0000
     72 C           4.0144    1.4895   -0.2058 C.3     1  UNL1        0.0000
     73 H           3.5681    1.1835   -1.1516 H       1  UNL1        0.0000
     74 H           3.9374    0.6522    0.4836 H       1  UNL1        0.0000
     75 H           5.0654    1.7062   -0.3842 H       1  UNL1        0.0000
     76 N           7.4923    2.8710   -0.5209 N.3     1  UNL1        0.0000
@<TRIPOS>BOND
     1    69    68    1
     2    71    68    1
     3    68    70    1
     4    68    17    1
     5    32    31    1
     6    49    48    1
     7    57    56    1
     8    73    72    1
     9    33    31    1
    10    50    48    1
    11    31    17    1
    12    31    34    1
    13    45    43    1
    14    48    51    1
    15    48    16    1
    16    17    56    1
    17    17     3    1
    18    56    59    1
    19    56    58    1
    20    76    47    1
    21    75    72    1
    22    46    43    1
    23    72    16    1
    24    72    74    1
    25    65    64    1
    26    43    44    1
    27    43    22    1
    28    47     1    1
    29    16    64    1
    30    16     2    1
    31    64    66    1
    32    64    67    1
    33    63    60    1
    34     3     1    1
    35     3    22    1
    36     3     9    1
    37     1     2    1
    38     1    21    2
    39    22    60    1
    40    22    52    1
    41    60    61    1
    42    60    62    1
    43     2     6    1
    44     2    18    1
    45     7     6    1
    46    11     9    1
    47    42    39    1
    48    54    52    1
    49    21     4    1
    50    21     5    1
    51     9     4    1
    52     9    10    1
    53    41    39    1
    54    52    53    1
    55    52    55    1
    56     6     5    1
    57     6     8    1
    58     4    15    1
    59    39    18    1
    60    39    40    1
    61     5    12    1
    62    25    23    1
    63    18    23    1
    64    18    35    1
    65    15    12   ar
    66    15    13   ar
    67    12    29   ar
    68    23    26    1
    69    23    24    1
    70    38    35    1
    71    14    13    1
    72    13    19   ar
    73    29    30    1
    74    29    27   ar
    75    35    37    1
    76    35    36    1
    77    19    27   ar
    78    19    20    1
    79    27    28    1
