@<TRIPOS>MOLECULE
CSD_code = DUGDEQ | q = 1 | S = 0 | Stoichiometry = C20H12CoN10O4(1+) | MND = 6
 47 54 0 0 0
SMALL
GASTEIGER

@<TRIPOS>ATOM
      1 CO          6.1378   21.4744    2.9445 Co.oh   1  UNL1        0.0000
      2 O           6.6376   17.9312    4.5877 O.2     1  UNL1        0.0000
      3 O           5.3509   17.7219    2.0468 O.2     1  UNL1        0.0000
      4 O           7.5415   25.0127    1.9374 O.2     1  UNL1        0.0000
      5 O           5.0040   25.2346    3.2288 O.2     1  UNL1        0.0000
      6 N           6.0699   19.6383    3.1298 N.am    1  UNL1        0.0000
      7 N           6.9877   21.4632    4.6273 N.pl3   1  UNL1        0.0000
      8 N           7.6673   19.9403    6.2860 N.2     1  UNL1        0.0000
      9 N           5.2767   21.1895    1.2919 N.pl3   1  UNL1        0.0000
     10 N           4.4604   19.4213   -0.0272 N.2     1  UNL1        0.0000
     11 N           6.2046   23.3106    2.7604 N.am    1  UNL1        0.0000
     12 N           7.8144   21.4768    2.0833 N.pl3   1  UNL1        0.0000
     13 N           9.3653   22.9941    1.1749 N.2     1  UNL1        0.0000
     14 N           4.4719   21.7681    3.7770 N.pl3   1  UNL1        0.0000
     15 N           3.0510   23.5449    4.3743 N.2     1  UNL1        0.0000
     16 C           6.5881   19.0855    4.2726 C.2     1  UNL1        0.0000
     17 C           7.1195   20.2195    5.1290 C.3     1  UNL1        0.0000
     18 C           7.4544   22.4735    5.3656 C.2     1  UNL1        0.0000
     19 H           7.3548   23.4766    4.9715 H       1  UNL1        0.0000
     20 C           8.0465   22.2500    6.5979 C.2     1  UNL1        0.0000
     21 H           8.4196   23.0714    7.1869 H       1  UNL1        0.0000
     22 C           8.1305   20.9294    7.0277 C.2     1  UNL1        0.0000
     23 H           8.5711   20.6502    7.9747 H       1  UNL1        0.0000
     24 C           5.4954   18.9085    2.1210 C.2     1  UNL1        0.0000
     25 C           5.0429   19.8843    1.0513 C.3     1  UNL1        0.0000
     26 C           4.8828   22.0633    0.3618 C.2     1  UNL1        0.0000
     27 H           5.0650   23.1143    0.5454 H       1  UNL1        0.0000
     28 C           4.2600   21.6428   -0.8020 C.2     1  UNL1        0.0000
     29 H           3.9452   22.3549   -1.5467 H       1  UNL1        0.0000
     30 C           4.0664   20.2736   -0.9552 C.2     1  UNL1        0.0000
     31 H           3.5913   19.8448   -1.8266 H       1  UNL1        0.0000
     32 C           7.3047   23.8587    2.1525 C.2     1  UNL1        0.0000
     33 C           8.2319   22.7197    1.7724 C.3     1  UNL1        0.0000
     34 C           8.6167   20.4614    1.7534 C.2     1  UNL1        0.0000
     35 H           8.2907   19.4588    1.9986 H       1  UNL1        0.0000
     36 C           9.8291   20.6794    1.1198 C.2     1  UNL1        0.0000
     37 H          10.4704   19.8542    0.8580 H       1  UNL1        0.0000
     38 C          10.1690   22.0002    0.8445 C.2     1  UNL1        0.0000
     39 H          11.0932   22.2758    0.3557 H       1  UNL1        0.0000
     40 C           5.1539   24.0465    3.2452 C.2     1  UNL1        0.0000
     41 C           4.1516   23.0756    3.8403 C.3     1  UNL1        0.0000
     42 C           3.6005   20.8990    4.2954 C.2     1  UNL1        0.0000
     43 H           3.8476   19.8462    4.2499 H       1  UNL1        0.0000
     44 C           2.4171   21.3262    4.8752 C.2     1  UNL1        0.0000
     45 H           1.7203   20.6175    5.2912 H       1  UNL1        0.0000
     46 C           2.1810   22.6972    4.8914 C.2     1  UNL1        0.0000
     47 H           1.2892   23.1312    5.3217 H       1  UNL1        0.0000
@<TRIPOS>BOND
     1    31    30    1
     2    29    28    1
     3    30    28    1
     4    30    10    2
     5    28    26    2
     6    10    25    1
     7    39    38    1
     8    26    27    1
     9    26     9    1
    10    38    36    1
    11    38    13    2
    12    37    36    1
    13    25     9    1
    14    25    24    1
    15    36    34    2
    16    13    33    1
    17     9     1    1
    18    34    35    1
    19    34    12    1
    20    33    12    1
    21    33    32    1
    22     4    32    2
    23     3    24    2
    24    12     1    1
    25    24     6   am
    26    32    11   am
    27    11     1    1
    28    11    40   am
    29     1     6    1
    30     1    14    1
    31     1     7    1
    32     6    16   am
    33     5    40    2
    34    40    41    1
    35    14    41    1
    36    14    42    1
    37    41    15    1
    38    43    42    1
    39    16     2    2
    40    16    17    1
    41    42    44    2
    42    15    46    2
    43     7    17    1
    44     7    18    1
    45    44    46    1
    46    44    45    1
    47    46    47    1
    48    19    18    1
    49    17     8    1
    50    18    20    2
    51     8    22    2
    52    20    22    1
    53    20    21    1
    54    22    23    1
