@<TRIPOS>MOLECULE
CSD_code = DUWGUZ | q = 1 | S = 0 | Stoichiometry = C28H30CoN8O4(1+) | MND = 6
 71 78 0 0 0
SMALL
GASTEIGER

@<TRIPOS>ATOM
      1 CO          3.0896    0.8453   13.2633 Co.oh   1  UNL1        0.0000
      2 O           1.9912    2.3023   13.5981 O.3     1  UNL1        0.0000
      3 O          -1.6773    5.1156   12.7885 O.3     1  UNL1        0.0000
      4 O           4.6342    1.8540   13.4289 O.3     1  UNL1        0.0000
      5 O           8.9724    2.6781   14.8640 O.3     1  UNL1        0.0000
      6 N           4.3130   -0.6473   12.8303 N.pl3   1  UNL1        0.0000
      7 N           5.9534   -0.9378   11.1192 N.2     1  UNL1        0.0000
      8 N           4.3088    0.6212   10.9165 N.3     1  UNL1        0.0000
      9 N           3.2386    1.2894   11.4408 N.3     1  UNL1        0.0000
     10 N           1.4085   -0.1930   13.1822 N.pl3   1  UNL1        0.0000
     11 N          -0.3432   -0.5449   14.7670 N.2     1  UNL1        0.0000
     12 N           1.7120    0.1718   15.4290 N.3     1  UNL1        0.0000
     13 N           2.9763    0.5903   15.1258 N.3     1  UNL1        0.0000
     14 C           4.8944   -0.3454   11.6472 C.3     1  UNL1        0.0000
     15 C           4.8352   -1.6906   13.4965 C.2     1  UNL1        0.0000
     16 C           5.9466   -2.3528   13.0021 C.2     1  UNL1        0.0000
     17 C           6.5136   -1.9254   11.7989 C.2     1  UNL1        0.0000
     18 C           2.7080    2.2836   10.7863 C.3     1  UNL1        0.0000
     19 C           3.3064    2.7132    9.4762 C.3     1  UNL1        0.0000
     20 C           1.5639    2.9650   11.3169 C.ar    1  UNL1        0.0000
     21 C           1.2867    2.9365   12.7173 C.ar    1  UNL1        0.0000
     22 C           0.1922    3.6839   13.1944 C.ar    1  UNL1        0.0000
     23 C          -0.6240    4.4035   12.3486 C.ar    1  UNL1        0.0000
     24 C          -0.3798    4.3833   10.9649 C.ar    1  UNL1        0.0000
     25 C           0.6942    3.6928   10.4801 C.ar    1  UNL1        0.0000
     26 C           4.2052   -2.1417   14.7706 C.3     1  UNL1        0.0000
     27 C           7.7339   -2.5518   11.2294 C.3     1  UNL1        0.0000
     28 C           0.8860   -0.1892   14.4291 C.3     1  UNL1        0.0000
     29 C           0.6125   -0.6665   12.2088 C.2     1  UNL1        0.0000
     30 C          -0.6863   -1.0558   12.4930 C.2     1  UNL1        0.0000
     31 C          -1.1554   -0.9537   13.8045 C.2     1  UNL1        0.0000
     32 C           3.7633    1.0250   16.0689 C.3     1  UNL1        0.0000
     33 C           3.2578    1.1024   17.4828 C.3     1  UNL1        0.0000
     34 C           5.1044    1.4251   15.7562 C.ar    1  UNL1        0.0000
     35 C           5.4554    1.8208   14.4276 C.ar    1  UNL1        0.0000
     36 C           6.7739    2.2448   14.1841 C.ar    1  UNL1        0.0000
     37 C           7.7280    2.2705   15.1794 C.ar    1  UNL1        0.0000
     38 C           7.3876    1.8498   16.4747 C.ar    1  UNL1        0.0000
     39 C           6.1065    1.4513   16.7438 C.ar    1  UNL1        0.0000
     40 C           1.1369   -0.7822   10.8182 C.3     1  UNL1        0.0000
     41 C          -2.5487   -1.3066   14.1797 C.3     1  UNL1        0.0000
     42 H          -1.7360    5.0871   13.7520 H       1  UNL1        0.0000
     43 H           4.7966    0.9651   10.0979 H       1  UNL1        0.0000
     44 H           6.3701   -3.1818   13.5437 H       1  UNL1        0.0000
     45 H           9.5436    2.6704   15.6431 H       1  UNL1        0.0000
     46 H           3.1920    1.9399    8.7158 H       1  UNL1        0.0000
     47 H           4.3690    2.9196    9.6112 H       1  UNL1        0.0000
     48 H           2.8464    3.6267    9.1189 H       1  UNL1        0.0000
     49 H           1.3196    0.2992   16.3541 H       1  UNL1        0.0000
     50 H           0.0137    3.6783   14.2608 H       1  UNL1        0.0000
     51 H          -1.0476    4.9218   10.3140 H       1  UNL1        0.0000
     52 H           0.8469    3.6758    9.4127 H       1  UNL1        0.0000
     53 H           4.5907   -1.5491   15.5992 H       1  UNL1        0.0000
     54 H           4.4484   -3.1846   14.9567 H       1  UNL1        0.0000
     55 H           3.1256   -2.0257   14.7296 H       1  UNL1        0.0000
     56 H           8.5788   -2.3815   11.8951 H       1  UNL1        0.0000
     57 H           7.9518   -2.1213   10.2572 H       1  UNL1        0.0000
     58 H           7.5987   -3.6274   11.1344 H       1  UNL1        0.0000
     59 H          -1.3264   -1.4244   11.7094 H       1  UNL1        0.0000
     60 H           3.0834    0.1078   17.8951 H       1  UNL1        0.0000
     61 H           2.3222    1.6624   17.5085 H       1  UNL1        0.0000
     62 H           3.9610    1.6264   18.1190 H       1  UNL1        0.0000
     63 H           7.0371    2.5642   13.1890 H       1  UNL1        0.0000
     64 H           8.1375    1.8407   17.2524 H       1  UNL1        0.0000
     65 H           5.8814    1.1056   17.7405 H       1  UNL1        0.0000
     66 H           2.1874   -1.0599   10.8237 H       1  UNL1        0.0000
     67 H           1.0296    0.1732   10.3063 H       1  UNL1        0.0000
     68 H           0.5696   -1.5280   10.2678 H       1  UNL1        0.0000
     69 H          -2.6905   -1.1693   15.2470 H       1  UNL1        0.0000
     70 H          -2.7587   -2.3413   13.9144 H       1  UNL1        0.0000
     71 H          -3.2505   -0.6770   13.6351 H       1  UNL1        0.0000
@<TRIPOS>BOND
     1    46    19    1
     2    48    19    1
     3    52    25    1
     4    19    47    1
     5    19    18    1
     6    43     8    1
     7    57    27    1
     8    68    40    1
     9    67    40    1
    10    51    24    1
    11    25    24   ar
    12    25    20   ar
    13    18    20    1
    14    18     9    1
    15    40    66    1
    16    40    29    1
    17     8     9    1
    18     8    14    1
    19    24    23   ar
    20     7    14    1
    21     7    17    2
    22    58    27    1
    23    27    17    1
    24    27    56    1
    25    20    21   ar
    26     9     1    1
    27    14     6    1
    28    59    30    1
    29    17    16    1
    30    29    30    2
    31    29    10    1
    32    23     3    1
    33    23    22   ar
    34    30    31    1
    35    21    22   ar
    36    21     2    1
    37     3    42    1
    38     6     1    1
    39     6    15    1
    40    16    15    2
    41    16    44    1
    42    10     1    1
    43    10    28    1
    44    63    36    1
    45    22    50    1
    46     1     4    1
    47     1     2    1
    48     1    13    1
    49     4    35    1
    50    15    26    1
    51    71    41    1
    52    31    41    1
    53    31    11    2
    54    70    41    1
    55    41    69    1
    56    36    35   ar
    57    36    37   ar
    58    35    34   ar
    59    28    11    1
    60    28    12    1
    61    55    26    1
    62    26    54    1
    63    26    53    1
    64     5    37    1
    65     5    45    1
    66    13    12    1
    67    13    32    1
    68    37    38   ar
    69    12    49    1
    70    34    32    1
    71    34    39   ar
    72    32    33    1
    73    38    39   ar
    74    38    64    1
    75    39    65    1
    76    33    61    1
    77    33    60    1
    78    33    62    1
