@<TRIPOS>MOLECULE
CSD_code = DUZTOJ | q = 0 | S = 0 | Stoichiometry = C42H46CoNP4 | MND = 5
 94 101 0 0 0
SMALL
GASTEIGER

@<TRIPOS>ATOM
      1 CO          4.4621   12.5847    2.7187 Co.oh   1  UNL1        0.0000
      2 P           4.5303   14.6713    3.5275 P.3     1  UNL1        0.0000
      3 P           5.5469   10.7680    3.4071 P.3     1  UNL1        0.0000
      4 P           3.8480   12.5191    0.4468 P.3     1  UNL1        0.0000
      5 P           2.5363   12.0545    3.5727 P.3     1  UNL1        0.0000
      6 N           6.3124   12.9327    2.1358 N.pl3   1  UNL1        0.0000
      7 C           6.8918   14.1428    2.3080 C.ar    1  UNL1        0.0000
      8 C           5.0022    9.0542    3.6994 C.ar    1  UNL1        0.0000
      9 C           6.1245   15.1912    2.8667 C.ar    1  UNL1        0.0000
     10 C           6.6738   10.6080    2.0006 C.ar    1  UNL1        0.0000
     11 C           6.9486   11.8979    1.4983 C.ar    1  UNL1        0.0000
     12 C           5.9605   15.1236    5.9163 C.ar    1  UNL1        0.0000
     13 H           6.8528   15.0099    5.3172 H       1  UNL1        0.0000
     14 C           3.4620   16.0777    3.0453 C.ar    1  UNL1        0.0000
     15 C           8.3035   10.8489   -0.2004 C.ar    1  UNL1        0.0000
     16 H           8.9305   10.9407   -1.0766 H       1  UNL1        0.0000
     17 C           8.0373    9.5920    0.3213 C.ar    1  UNL1        0.0000
     18 H           8.4662    8.7117   -0.1341 H       1  UNL1        0.0000
     19 C           5.0148    8.4714    4.9627 C.ar    1  UNL1        0.0000
     20 H           5.4256    9.0172    5.8015 H       1  UNL1        0.0000
     21 C           6.6295   16.4769    2.9971 C.ar    1  UNL1        0.0000
     22 H           5.9978   17.2583    3.3975 H       1  UNL1        0.0000
     23 C           3.3583   17.2703    3.7542 C.ar    1  UNL1        0.0000
     24 H           3.8769   17.3936    4.6944 H       1  UNL1        0.0000
     25 C           6.7419   10.9633    4.7739 C.ar    1  UNL1        0.0000
     26 C           4.7114   15.0415    5.3101 C.ar    1  UNL1        0.0000
     27 C           8.2499   14.4317    2.0555 C.ar    1  UNL1        0.0000
     28 H           8.9208   13.6342    1.7727 H       1  UNL1        0.0000
     29 C           7.9319   16.7522    2.6325 C.ar    1  UNL1        0.0000
     30 H           8.3276   17.7531    2.7181 H       1  UNL1        0.0000
     31 C           2.7756   15.9457    1.8446 C.ar    1  UNL1        0.0000
     32 H           2.8653   15.0063    1.3154 H       1  UNL1        0.0000
     33 C           8.7441   15.7058    2.2061 C.ar    1  UNL1        0.0000
     34 H           9.7880   15.8937    1.9944 H       1  UNL1        0.0000
     35 C           3.9585    7.0680    2.8169 C.ar    1  UNL1        0.0000
     36 H           3.5449    6.5218    1.9809 H       1  UNL1        0.0000
     37 C           7.7733   11.9914    0.3696 C.ar    1  UNL1        0.0000
     38 H           7.9755   12.9524   -0.0819 H       1  UNL1        0.0000
     39 C           4.5173    7.1934    5.1456 C.ar    1  UNL1        0.0000
     40 H           4.5388    6.7452    6.1289 H       1  UNL1        0.0000
     41 C           7.9190   10.2230    4.8163 C.ar    1  UNL1        0.0000
     42 H           8.1398    9.5207    4.0242 H       1  UNL1        0.0000
     43 C           3.5685   15.1602    6.0997 C.ar    1  UNL1        0.0000
     44 H           2.5925   15.0978    5.6351 H       1  UNL1        0.0000
     45 C           4.4484    8.3465    2.6336 C.ar    1  UNL1        0.0000
     46 H           4.4131    8.8146    1.6590 H       1  UNL1        0.0000
     47 C           6.0621   15.3538    7.2768 C.ar    1  UNL1        0.0000
     48 H           7.0381   15.4373    7.7339 H       1  UNL1        0.0000
     49 C           7.2072    9.4709    1.4262 C.ar    1  UNL1        0.0000
     50 H           6.9808    8.4939    1.8324 H       1  UNL1        0.0000
     51 C           7.3434   12.0312    6.8410 C.ar    1  UNL1        0.0000
     52 H           7.1157   12.7355    7.6281 H       1  UNL1        0.0000
     53 C           6.4626   11.8698    5.7867 C.ar    1  UNL1        0.0000
     54 H           5.5526   12.4521    5.7329 H       1  UNL1        0.0000
     55 C           3.6725   15.3805    7.4598 C.ar    1  UNL1        0.0000
     56 H           2.7789   15.4781    8.0605 H       1  UNL1        0.0000
     57 C           8.8009   10.3916    5.8668 C.ar    1  UNL1        0.0000
     58 H           9.7172    9.8192    5.8975 H       1  UNL1        0.0000
     59 C           4.9216   15.4826    8.0521 C.ar    1  UNL1        0.0000
     60 H           5.0034   15.6626    9.1142 H       1  UNL1        0.0000
     61 C           3.9946    6.4868    4.0753 C.ar    1  UNL1        0.0000
     62 H           3.6124    5.4870    4.2208 H       1  UNL1        0.0000
     63 C           8.5135   11.2924    6.8812 C.ar    1  UNL1        0.0000
     64 H           9.2060   11.4188    7.7011 H       1  UNL1        0.0000
     65 C           1.9996   16.9760    1.3504 C.ar    1  UNL1        0.0000
     66 H           1.4706   16.8603    0.4146 H       1  UNL1        0.0000
     67 C           1.9016   18.1611    2.0612 C.ar    1  UNL1        0.0000
     68 H           1.2971   18.9726    1.6829 H       1  UNL1        0.0000
     69 C           2.5805   18.3028    3.2603 C.ar    1  UNL1        0.0000
     70 H           2.5056   19.2274    3.8151 H       1  UNL1        0.0000
     71 C           1.1095   13.2078    3.4703 C.3     1  UNL1        0.0000
     72 H           0.2796   12.8452    4.0765 H       1  UNL1        0.0000
     73 H           0.7929   13.2927    2.4327 H       1  UNL1        0.0000
     74 H           1.4165   14.1938    3.8141 H       1  UNL1        0.0000
     75 C           2.5895   11.7405    5.3783 C.3     1  UNL1        0.0000
     76 H           2.9394   12.6329    5.8944 H       1  UNL1        0.0000
     77 H           3.2940   10.9291    5.5625 H       1  UNL1        0.0000
     78 H           1.6034   11.4625    5.7507 H       1  UNL1        0.0000
     79 C           4.2474   10.9828   -0.4870 C.3     1  UNL1        0.0000
     80 H           3.6029   10.1778   -0.1366 H       1  UNL1        0.0000
     81 H           5.2837   10.7044   -0.3144 H       1  UNL1        0.0000
     82 H           4.0855   11.1361   -1.5538 H       1  UNL1        0.0000
     83 C           1.7097   10.5019    3.0426 C.3     1  UNL1        0.0000
     84 H           2.3545    9.6579    3.2811 H       1  UNL1        0.0000
     85 H           1.5466   10.5197    1.9671 H       1  UNL1        0.0000
     86 H           0.7545   10.3883    3.5548 H       1  UNL1        0.0000
     87 C           2.1399   12.7385   -0.2328 C.3     1  UNL1        0.0000
     88 H           2.1554   12.6402   -1.3178 H       1  UNL1        0.0000
     89 H           1.7423   13.7161    0.0288 H       1  UNL1        0.0000
     90 H           1.4827   11.9770    0.1828 H       1  UNL1        0.0000
     91 C           4.7384   13.7278   -0.6127 C.3     1  UNL1        0.0000
     92 H           4.3571   13.6972   -1.6332 H       1  UNL1        0.0000
     93 H           5.7945   13.4719   -0.6119 H       1  UNL1        0.0000
     94 H           4.6293   14.7318   -0.2070 H       1  UNL1        0.0000
@<TRIPOS>BOND
     1    92    91    1
     2    82    79    1
     3    88    87    1
     4    16    15    1
     5    91    93    1
     6    91    94    1
     7    91     4    1
     8    79    81    1
     9    79    80    1
    10    79     4    1
    11    87    89    1
    12    87    90    1
    13    87     4    1
    14    15    17   ar
    15    15    37   ar
    16    18    17    1
    17    38    37    1
    18    17    49   ar
    19    37    11   ar
    20    66    65    1
    21     4     1    1
    22    32    31    1
    23    65    31   ar
    24    65    67   ar
    25    49    50    1
    26    49    10   ar
    27    11    10   ar
    28    11     6    1
    29    46    45    1
    30    68    67    1
    31    28    27    1
    32    31    14   ar
    33    85    83    1
    34    36    35    1
    35    34    33    1
    36    10     3    1
    37    27    33   ar
    38    27     7   ar
    39    67    69   ar
    40     6     7    1
    41     6     1    1
    42    33    29   ar
    43     7     9   ar
    44    73    71    1
    45    29    30    1
    46    29    21   ar
    47    45    35   ar
    48    45     8   ar
    49     1     3    1
    50     1     2    1
    51     1     5    1
    52    35    61   ar
    53     9    21   ar
    54     9     2    1
    55    21    22    1
    56    83    84    1
    57    83    86    1
    58    83     5    1
    59    14     2    1
    60    14    23   ar
    61    69    23   ar
    62    69    70    1
    63     3     8    1
    64     3    25    1
    65    71     5    1
    66    71    74    1
    67    71    72    1
    68     2    26    1
    69     5    75    1
    70     8    19   ar
    71    23    24    1
    72    42    41    1
    73    61    62    1
    74    61    39   ar
    75    25    41   ar
    76    25    53   ar
    77    41    57   ar
    78    19    39   ar
    79    19    20    1
    80    39    40    1
    81    26    12   ar
    82    26    43   ar
    83    13    12    1
    84    75    77    1
    85    75    78    1
    86    75    76    1
    87    44    43    1
    88    54    53    1
    89    53    51   ar
    90    57    58    1
    91    57    63   ar
    92    12    47   ar
    93    43    55   ar
    94    51    63   ar
    95    51    52    1
    96    63    64    1
    97    47    48    1
    98    47    59   ar
    99    55    59   ar
   100    55    56    1
   101    59    60    1
