@<TRIPOS>MOLECULE
CSD_code = EBEHID | q = 0 | S = 0 | Stoichiometry = C10H11CoN10S2 | MND = 6
 34 39 0 0 0
SMALL
GASTEIGER

@<TRIPOS>ATOM
      1 CO          0.6206   12.8709    2.3435 Co.oh   1  UNL1        0.0000
      2 S          -0.4491   14.4403    1.0672 S.3     1  UNL1        0.0000
      3 N           0.6569   16.8047    0.7484 N.pl3   1  UNL1        0.0000
      4 H           1.3977   17.4781    0.8309 H       1  UNL1        0.0000
      5 H          -0.1379   16.9859    0.1627 H       1  UNL1        0.0000
      6 N           1.8757   15.3530    2.0248 N.2     1  UNL1        0.0000
      7 N           1.9304   14.1461    2.5522 N.pl3   1  UNL1        0.0000
      8 N           1.7427   11.7718    3.4366 N.pl3   1  UNL1        0.5000
      9 N           3.6307   11.7089    4.5570 N.pl3   1  UNL1        0.5000
     10 H           4.5162   11.9843    4.9471 H       1  UNL1        0.0000
     11 C           0.7956   15.5951    1.3095 C.2     1  UNL1        0.0000
     12 C           2.9518   13.7880    3.2819 C.2     1  UNL1        0.0000
     13 H           3.7875   14.4453    3.4729 H       1  UNL1        0.0000
     14 C           2.8317   12.4660    3.7716 C.2     1  UNL1        0.0000
     15 C           1.8451   10.5527    4.0203 C.2     1  UNL1        0.0000
     16 H           1.0891    9.8027    3.9028 H       1  UNL1        0.0000
     17 C           3.0149   10.4962    4.7196 C.2     1  UNL1        0.0000
     18 H           3.4463    9.7111    5.3041 H       1  UNL1        0.0000
     19 S           1.5303   11.9072    0.4581 S.3     1  UNL1        0.0000
     20 N           0.3601    9.8142   -0.6458 N.pl3   1  UNL1        0.0000
     21 H          -0.4546    9.2579   -0.8442 H       1  UNL1        0.0000
     22 H           0.9916   10.0191   -1.4008 H       1  UNL1        0.0000
     23 N          -0.7183   10.6524    1.1932 N.2     1  UNL1        0.0000
     24 N          -0.7066   11.5618    2.1752 N.pl3   1  UNL1        0.0000
     25 N          -0.3715   13.4112    3.8587 N.ar    1  UNL1        0.0000
     26 N          -2.1453   12.9272    5.1438 N.ar    1  UNL1        0.0000
     27 C           0.2630   10.7247    0.3491 C.2     1  UNL1        0.0000
     28 C          -1.6230   11.5785    3.0911 C.3     1  UNL1        0.0000
     29 H          -2.4404   10.8715    3.1016 H       1  UNL1        0.0000
     30 C          -1.4524   12.6002    4.0557 C.ar    1  UNL1        0.0000
     31 C          -0.3907   14.2921    4.8748 C.ar    1  UNL1        0.0000
     32 H           0.3407   15.0706    4.9846 H       1  UNL1        0.0000
     33 C          -1.4914   13.9806    5.6586 C.ar    1  UNL1        0.0000
     34 H          -1.8326   14.4636    6.5534 H       1  UNL1        0.0000
@<TRIPOS>BOND
     1    22    20    1
     2    21    20    1
     3    20    27    1
     4     5     3    1
     5    27    19    1
     6    27    23    2
     7    19     1    1
     8     3     4    1
     9     3    11    1
    10     2    11    1
    11     2     1    1
    12    23    24    1
    13    11     6    2
    14     6     7    1
    15    24     1    1
    16    24    28    1
    17     1     7    1
    18     1     8    1
    19     1    25    1
    20     7    12    1
    21    28    29    1
    22    28    30    1
    23    12    13    1
    24    12    14    2
    25     8    14    1
    26     8    15    1
    27    14     9    1
    28    25    30   ar
    29    25    31   ar
    30    16    15    1
    31    15    17    2
    32    30    26   ar
    33     9    17    1
    34     9    10    1
    35    17    18    1
    36    31    32    1
    37    31    33   ar
    38    26    33   ar
    39    33    34    1
