@<TRIPOS>MOLECULE
CSD_code = EJARIQ | q = 0 | S = 0 | Stoichiometry = C29H44ClCoN8O3S | MND = 5
 87 92 0 0 0
SMALL
GASTEIGER

@<TRIPOS>ATOM
      1 CO          8.7806    2.9678   11.6265 Co.oh   1  UNL1        0.0000
      2 S           6.0792    3.5839   10.5607 S.3     1  UNL1        0.0000
      3 CL         10.3489    2.2101   12.7954 Cl      1  UNL1        0.0000
      4 C           5.8938    2.2096   11.8863 C.3     1  UNL1        0.0000
      5 O           7.5167    3.4831   10.2684 O.3     1  UNL1        0.0000
      6 O           5.6585    4.7765   11.2293 O.3     1  UNL1        0.0000
      7 O           5.2742    3.1026    9.4794 O.3     1  UNL1        0.0000
      8 N           7.6975    3.2873   13.1892 N.pl3   1  UNL1        0.0000
      9 N           6.4881    2.6838   13.1071 N.3     1  UNL1        0.0000
     10 C           5.8318    2.7720   14.2787 C.3     1  UNL1        0.0000
     11 H           4.8614    2.3439   14.4230 H       1  UNL1        0.0000
     12 C           6.6436    3.4409   15.1456 C.2     1  UNL1        0.0000
     13 H           6.4203    3.6660   16.1657 H       1  UNL1        0.0000
     14 C           7.8172    3.7646   14.4365 C.2     1  UNL1        0.0000
     15 C           8.9457    4.4692   15.1626 C.3     1  UNL1        0.0000
     16 C           9.9545    5.2098   14.2920 C.3     1  UNL1        0.0000
     17 H           9.4513    5.9390   13.6663 H       1  UNL1        0.0000
     18 H          10.5214    4.5275   13.6720 H       1  UNL1        0.0000
     19 H          10.6591    5.7308   14.9367 H       1  UNL1        0.0000
     20 C           9.6807    3.4026   15.9918 C.3     1  UNL1        0.0000
     21 H          10.4418    3.8826   16.6012 H       1  UNL1        0.0000
     22 H          10.1639    2.6861   15.3338 H       1  UNL1        0.0000
     23 H           8.9936    2.8728   16.6475 H       1  UNL1        0.0000
     24 C           8.3234    5.5125   16.1101 C.3     1  UNL1        0.0000
     25 H           7.6335    6.1547   15.5690 H       1  UNL1        0.0000
     26 H           9.1138    6.1337   16.5230 H       1  UNL1        0.0000
     27 H           7.8015    5.0540   16.9446 H       1  UNL1        0.0000
     28 N           7.9201    1.1394   11.2013 N.pl3   1  UNL1        0.0000
     29 N           6.5872    1.0829   11.3480 N.3     1  UNL1        0.0000
     30 C           6.0609    0.0887   10.6088 C.3     1  UNL1        0.0000
     31 H           5.0107   -0.1103   10.5937 H       1  UNL1        0.0000
     32 C           7.1050   -0.5397    9.9818 C.2     1  UNL1        0.0000
     33 H           7.0390   -1.3850    9.3308 H       1  UNL1        0.0000
     34 C           8.2596    0.1636   10.3577 C.2     1  UNL1        0.0000
     35 C           9.6621   -0.0724    9.8691 C.3     1  UNL1        0.0000
     36 C           9.6478   -1.0470    8.6847 C.3     1  UNL1        0.0000
     37 H          10.6536   -1.1373    8.2814 H       1  UNL1        0.0000
     38 H           8.9925   -0.6916    7.8929 H       1  UNL1        0.0000
     39 H           9.3204   -2.0349    8.9984 H       1  UNL1        0.0000
     40 C          10.2484    1.2606    9.3851 C.3     1  UNL1        0.0000
     41 H          11.3145    1.1603    9.1952 H       1  UNL1        0.0000
     42 H          10.1076    2.0545   10.1366 H       1  UNL1        0.0000
     43 H           9.7521    1.5835    8.4718 H       1  UNL1        0.0000
     44 C          10.5113   -0.6790   10.9936 C.3     1  UNL1        0.0000
     45 H          11.5067   -0.9066   10.6202 H       1  UNL1        0.0000
     46 H          10.0570   -1.6018   11.3478 H       1  UNL1        0.0000
     47 H          10.6041    0.0068   11.8295 H       1  UNL1        0.0000
     48 N           4.0883    0.7771   12.5754 N.ar    1  UNL1        0.0000
     49 N           4.5158    1.9451   12.0547 N.ar    1  UNL1        0.0000
     50 C           3.4772    2.7850   11.8046 C.ar    1  UNL1        0.0000
     51 H           3.6397    3.7622   11.4042 H       1  UNL1        0.0000
     52 C           2.3412    2.1148   12.1636 C.ar    1  UNL1        0.0000
     53 H           1.3359    2.4742   12.0951 H       1  UNL1        0.0000
     54 C           2.7765    0.8547   12.6372 C.ar    1  UNL1        0.0000
     55 C           1.9331   -0.2706   13.1611 C.3     1  UNL1        0.0000
     56 C           2.8053   -1.5001   13.4190 C.3     1  UNL1        0.0000
     57 H           2.2029   -2.3072   13.8290 H       1  UNL1        0.0000
     58 H           3.5996   -1.2596   14.1197 H       1  UNL1        0.0000
     59 H           3.2637   -1.8397   12.4943 H       1  UNL1        0.0000
     60 C           0.8508   -0.6098   12.1298 C.3     1  UNL1        0.0000
     61 H           0.2530   -1.4477   12.4811 H       1  UNL1        0.0000
     62 H           1.3030   -0.8830   11.1791 H       1  UNL1        0.0000
     63 H           0.1914    0.2382   11.9652 H       1  UNL1        0.0000
     64 C           1.2740    0.1811   14.4710 C.3     1  UNL1        0.0000
     65 H           0.6344   -0.6089   14.8574 H       1  UNL1        0.0000
     66 H           0.6681    1.0698   14.3115 H       1  UNL1        0.0000
     67 H           2.0311    0.4086   15.2183 H       1  UNL1        0.0000
     68 N           8.6692    5.5994   11.4898 N.ar    1  UNL1        0.0000
     69 N           9.5139    4.6062   11.4334 N.ar    1  UNL1        0.0000
     70 C          10.6571    4.9793   10.8241 C.ar    1  UNL1        0.0000
     71 H          11.4958    4.3191   10.7021 H       1  UNL1        0.0000
     72 C          10.5151    6.3116   10.4823 C.ar    1  UNL1        0.0000
     73 H          11.2433    6.9262    9.9927 H       1  UNL1        0.0000
     74 C           9.2291    6.6628   10.9271 C.ar    1  UNL1        0.0000
     75 C           8.4643    7.9499   10.8277 C.3     1  UNL1        0.0000
     76 C           9.3666    9.0810   10.3324 C.3     1  UNL1        0.0000
     77 H           8.8021   10.0095   10.2785 H       1  UNL1        0.0000
     78 H           9.7536    8.8585    9.3407 H       1  UNL1        0.0000
     79 H          10.2055    9.2258   11.0098 H       1  UNL1        0.0000
     80 C           7.3022    7.7288    9.8496 C.3     1  UNL1        0.0000
     81 H           6.6930    8.6276    9.7743 H       1  UNL1        0.0000
     82 H           6.6826    6.9055   10.1989 H       1  UNL1        0.0000
     83 H           7.6802    7.4807    8.8595 H       1  UNL1        0.0000
     84 C           7.8966    8.2930   12.2095 C.3     1  UNL1        0.0000
     85 H           7.3099    9.2083   12.1622 H       1  UNL1        0.0000
     86 H           8.7012    8.4328   12.9296 H       1  UNL1        0.0000
     87 H           7.2590    7.4790   12.5442 H       1  UNL1        0.0000
@<TRIPOS>BOND
     1    38    36    1
     2    37    36    1
     3    43    40    1
     4    36    39    1
     5    36    35    1
     6    83    80    1
     7    41    40    1
     8    33    32    1
     9    78    76    1
    10    40    35    1
    11    40    42    1
    12     7     2    1
    13    81    80    1
    14    80    82    1
    15    80    75    1
    16    35    34    1
    17    35    44    1
    18    32    34    2
    19    32    30    1
    20    73    72    1
    21     5     2    1
    22     5     1    1
    23    77    76    1
    24    76    75    1
    25    76    79    1
    26    34    28    1
    27    72    70   ar
    28    72    74   ar
    29     2     6    1
    30     2     4    1
    31    31    30    1
    32    30    29    1
    33    45    44    1
    34    71    70    1
    35    70    69   ar
    36    75    74    1
    37    75    84    1
    38    74    68   ar
    39    44    46    1
    40    44    47    1
    41    62    60    1
    42    28    29    1
    43    28     1    1
    44    29     4    1
    45    51    50    1
    46    69    68   ar
    47    69     1    1
    48     1     3    1
    49     1     8    1
    50    50    49   ar
    51    50    52   ar
    52     4    49    1
    53     4     9    1
    54    63    60    1
    55    49    48   ar
    56    53    52    1
    57    60    61    1
    58    60    55    1
    59    85    84    1
    60    52    54   ar
    61    84    87    1
    62    84    86    1
    63    59    56    1
    64    48    54   ar
    65    54    55    1
    66     9     8    1
    67     9    10    1
    68    55    56    1
    69    55    64    1
    70     8    14    1
    71    56    57    1
    72    56    58    1
    73    17    16    1
    74    18    16    1
    75    10    11    1
    76    10    12    1
    77    16    19    1
    78    16    15    1
    79    66    64    1
    80    14    12    2
    81    14    15    1
    82    64    65    1
    83    64    67    1
    84    12    13    1
    85    15    20    1
    86    15    24    1
    87    22    20    1
    88    25    24    1
    89    20    21    1
    90    20    23    1
    91    24    26    1
    92    24    27    1
