@<TRIPOS>MOLECULE
CSD_code = ENIDIO | q = 1 | S = 0 | Stoichiometry = C24H22CoN4O4(1+) | MND = 6
 55 62 0 0 0
SMALL
GASTEIGER

@<TRIPOS>ATOM
      1 CO         -0.0000   -0.0000   -0.0000 Co.oh   1  UNL1        0.0000
      2 O          -0.1684    0.3532    1.8387 O.3     1  UNL1        0.0000
      3 N           1.7250   -0.6310    0.4818 N.pl3   1  UNL1        0.0000
      4 O           1.2597    1.2366    3.4535 O.3     1  UNL1        0.0000
      5 N           0.7471    1.7400   -0.0600 N.pl3   1  UNL1        0.0000
      6 C           2.5250   -1.5058   -0.1203 C.3     1  UNL1        0.0000
      7 H           2.1776   -1.9033   -1.0631 H       1  UNL1        0.0000
      8 C           3.7436   -1.8667    0.4266 C.2     1  UNL1        0.0000
      9 H           4.3719   -2.5768   -0.0864 H       1  UNL1        0.0000
     10 C           4.1388   -1.3063    1.6342 C.2     1  UNL1        0.0000
     11 H           5.0799   -1.5813    2.0847 H       1  UNL1        0.0000
     12 C           3.3086   -0.3838    2.2515 C.2     1  UNL1        0.0000
     13 H           3.5530    0.0857    3.1898 H       1  UNL1        0.0000
     14 C           2.1116   -0.0764    1.6332 C.2     1  UNL1        0.0000
     15 C           1.0466    0.9021    2.1182 C.3     1  UNL1        0.0000
     16 C           0.1454    1.8411    4.0940 C.3     1  UNL1        0.0000
     17 H           0.4405    1.9650    5.1325 H       1  UNL1        0.0000
     18 H          -0.7312    1.1950    4.0232 H       1  UNL1        0.0000
     19 H          -0.0826    2.8148    3.6491 H       1  UNL1        0.0000
     20 C           1.2433    2.0690    1.1347 C.3     1  UNL1        0.0000
     21 C           1.8503    3.2854    1.3843 C.2     1  UNL1        0.0000
     22 H           2.2393    3.4962    2.3678 H       1  UNL1        0.0000
     23 C           1.9322    4.1973    0.3433 C.2     1  UNL1        0.0000
     24 H           2.3911    5.1617    0.4971 H       1  UNL1        0.0000
     25 C           1.4223    3.8473   -0.8998 C.2     1  UNL1        0.0000
     26 H           1.4810    4.5278   -1.7337 H       1  UNL1        0.0000
     27 C           0.8368    2.6045   -1.0662 C.2     1  UNL1        0.0000
     28 H           0.4442    2.2762   -2.0179 H       1  UNL1        0.0000
     29 O           0.1684   -0.3532   -1.8387 O.3     1  UNL1        0.0000
     30 C          -1.0466   -0.9021   -2.1182 C.3     1  UNL1        0.0000
     31 O          -1.2597   -1.2366   -3.4535 O.3     1  UNL1        0.0000
     32 C          -0.1454   -1.8410   -4.0940 C.3     1  UNL1        0.0000
     33 H          -0.4405   -1.9650   -5.1325 H       1  UNL1        0.0000
     34 H           0.7312   -1.1949   -4.0233 H       1  UNL1        0.0000
     35 H           0.0827   -2.8148   -3.6491 H       1  UNL1        0.0000
     36 C          -2.1117    0.0764   -1.6332 C.3     1  UNL1        0.0000
     37 N          -1.7250    0.6310   -0.4818 N.pl3   1  UNL1        0.0000
     38 N          -0.7471   -1.7400    0.0600 N.pl3   1  UNL1        0.0000
     39 C          -1.2433   -2.0691   -1.1347 C.3     1  UNL1        0.0000
     40 C          -1.8503   -3.2855   -1.3843 C.2     1  UNL1        0.0000
     41 H          -2.2393   -3.4962   -2.3678 H       1  UNL1        0.0000
     42 C          -1.9322   -4.1973   -0.3433 C.2     1  UNL1        0.0000
     43 H          -2.3910   -5.1617   -0.4971 H       1  UNL1        0.0000
     44 C          -1.4222   -3.8473    0.8998 C.2     1  UNL1        0.0000
     45 H          -1.4810   -4.5278    1.7337 H       1  UNL1        0.0000
     46 C          -0.8368   -2.6045    1.0662 C.2     1  UNL1        0.0000
     47 H          -0.4442   -2.2762    2.0179 H       1  UNL1        0.0000
     48 C          -2.5250    1.5058    0.1203 C.2     1  UNL1        0.0000
     49 H          -2.1776    1.9034    1.0631 H       1  UNL1        0.0000
     50 C          -3.7436    1.8667   -0.4266 C.2     1  UNL1        0.0000
     51 H          -4.3719    2.5768    0.0864 H       1  UNL1        0.0000
     52 C          -4.1388    1.3063   -1.6342 C.2     1  UNL1        0.0000
     53 H          -5.0799    1.5813   -2.0846 H       1  UNL1        0.0000
     54 C          -3.3086    0.3837   -2.2514 C.2     1  UNL1        0.0000
     55 H          -3.5531   -0.0858   -3.1898 H       1  UNL1        0.0000
@<TRIPOS>BOND
     1    33    32    1
     2    32    34    1
     3    32    35    1
     4    32    31    1
     5    31    30    1
     6    55    54    1
     7    41    40    1
     8    54    52    2
     9    54    36    1
    10    30    29    1
    11    30    36    1
    12    30    39    1
    13    53    52    1
    14    28    27    1
    15    29     1    1
    16    26    25    1
    17    52    50    1
    18    36    37    1
    19    40    39    1
    20    40    42    2
    21    39    38    1
    22    27    25    2
    23    27     5    1
    24     7     6    1
    25    25    23    1
    26    43    42    1
    27    37     1    1
    28    37    48    1
    29    50    51    1
    30    50    48    2
    31    42    44    1
    32     6     8    1
    33     6     3    1
    34     9     8    1
    35     5     1    1
    36     5    20    1
    37     1    38    1
    38     1     3    1
    39     1     2    1
    40    38    46    1
    41    48    49    1
    42    23    24    1
    43    23    21    2
    44     8    10    2
    45     3    14    1
    46    44    46    2
    47    44    45    1
    48    46    47    1
    49    20    21    1
    50    20    15    1
    51    21    22    1
    52    14    15    1
    53    14    12    2
    54    10    11    1
    55    10    12    1
    56     2    15    1
    57    15     4    1
    58    12    13    1
    59     4    16    1
    60    19    16    1
    61    18    16    1
    62    16    17    1
