@<TRIPOS>MOLECULE
CSD_code = EPAKAI | q = 0 | S = 0 | Stoichiometry = C26H32Cl2CoN7O4 | MND = 6
 72 78 0 0 0
SMALL
GASTEIGER

@<TRIPOS>ATOM
      1 CO          3.3227   10.5582   17.4898 Co.oh   1  UNL1        0.0000
      2 N           3.3572   11.1465   15.6454 N.3     1  UNL1        0.0000
      3 N           5.3094   10.6456   13.6499 N.3     1  UNL1        0.0000
      4 N           3.2061   10.0006   19.2621 N.3     1  UNL1        0.0000
      5 N           1.5981   11.8045   17.9329 N.4     1  UNL1        0.0000
      6 N           4.4031   11.9634   18.0783 N.2     1  UNL1        0.0000
      7 N           5.5000   11.9568   18.4944 N.2     1  UNL1        0.0000
      8 N           6.5430   12.1017   18.9154 N.2     1  UNL1        0.0000
      9 O           2.1757    9.0783   17.1142 O.3     1  UNL1        0.0000
     10 O           5.6195    8.8498   11.4879 O.3     1  UNL1        0.0000
     11 O           4.8269    9.5113   17.1308 O.3     1  UNL1        0.0000
     12 O          -0.6368   13.4880   17.1143 O.3     1  UNL1        0.0000
     13 CL          0.1681    6.9684   12.0682 Cl      1  UNL1        0.0000
     14 CL          8.3670    6.6613   20.7883 Cl      1  UNL1        0.0000
     15 C           2.0005    9.3256   14.7487 C.ar    1  UNL1        0.0000
     16 C           1.7961    8.6318   15.9774 C.ar    1  UNL1        0.0000
     17 C           1.0868    7.4024   15.9189 C.ar    1  UNL1        0.0000
     18 H           0.9433    6.8665   16.8449 H       1  UNL1        0.0000
     19 C           0.6025    6.9011   14.7423 C.ar    1  UNL1        0.0000
     20 H           0.0699    5.9626   14.7231 H       1  UNL1        0.0000
     21 C           0.7963    7.6092   13.5521 C.ar    1  UNL1        0.0000
     22 C           1.4803    8.7964   13.5542 C.ar    1  UNL1        0.0000
     23 H           1.6298    9.3344   12.6294 H       1  UNL1        0.0000
     24 C           2.7594   10.5270   14.6799 C.3     1  UNL1        0.0000
     25 H           2.8397   10.9533   13.6799 H       1  UNL1        0.0000
     26 C           4.2403   12.2041   15.2026 C.3     1  UNL1        0.0000
     27 H           4.4422   12.8916   16.0221 H       1  UNL1        0.0000
     28 H           3.7928   12.7498   14.3631 H       1  UNL1        0.0000
     29 C           5.5687   11.5691   14.7329 C.3     1  UNL1        0.0000
     30 H           6.2536   12.3696   14.4315 H       1  UNL1        0.0000
     31 H           6.0042   11.0422   15.5830 H       1  UNL1        0.0000
     32 C           5.7808    9.2917   13.8726 C.3     1  UNL1        0.0000
     33 H           5.4017    8.9516   14.8372 H       1  UNL1        0.0000
     34 H           6.8845    9.2455   13.8692 H       1  UNL1        0.0000
     35 C           5.2425    8.3860   12.7652 C.3     1  UNL1        0.0000
     36 H           5.6538    7.3798   12.8572 H       1  UNL1        0.0000
     37 H           4.1460    8.3378   12.8382 H       1  UNL1        0.0000
     38 C           5.1568   10.1605   11.2803 C.3     1  UNL1        0.0000
     39 H           4.0562   10.1761   11.3128 H       1  UNL1        0.0000
     40 H           5.4926   10.4518   10.2833 H       1  UNL1        0.0000
     41 C           5.7055   11.1200   12.3388 C.3     1  UNL1        0.0000
     42 H           6.8043   11.1702   12.2402 H       1  UNL1        0.0000
     43 H           5.2935   12.1188   12.1765 H       1  UNL1        0.0000
     44 C           5.2573    8.7525   19.3704 C.ar    1  UNL1        0.0000
     45 C           5.5689    8.9029   17.9865 C.ar    1  UNL1        0.0000
     46 C           6.7847    8.3237   17.5362 C.ar    1  UNL1        0.0000
     47 H           7.0345    8.4311   16.4926 H       1  UNL1        0.0000
     48 C           7.6231    7.6506   18.3814 C.ar    1  UNL1        0.0000
     49 H           8.5425    7.2239   18.0116 H       1  UNL1        0.0000
     50 C           7.2945    7.5163   19.7341 C.ar    1  UNL1        0.0000
     51 C           6.1335    8.0550   20.2204 C.ar    1  UNL1        0.0000
     52 H           5.8829    7.9532   21.2656 H       1  UNL1        0.0000
     53 C           4.0543    9.2822   19.9081 C.3     1  UNL1        0.0000
     54 H           3.8498    9.0442   20.9541 H       1  UNL1        0.0000
     55 C           1.9775   10.3974   19.9036 C.3     1  UNL1        0.0000
     56 H           2.0795   10.4004   20.9962 H       1  UNL1        0.0000
     57 H           1.1999    9.6747   19.6302 H       1  UNL1        0.0000
     58 C           1.6008   11.7881   19.4046 C.3     1  UNL1        0.0000
     59 H           0.6362   12.0819   19.8304 H       1  UNL1        0.0000
     60 H           2.3650   12.4924   19.7412 H       1  UNL1        0.0000
     61 C           1.7468   13.1750   17.4162 C.3     1  UNL1        0.0000
     62 H           1.8720   13.1084   16.3343 H       1  UNL1        0.0000
     63 H           2.6425   13.6230   17.8453 H       1  UNL1        0.0000
     64 C           0.5195   14.0474   17.6956 C.3     1  UNL1        0.0000
     65 H           0.3715   14.1876   18.7768 H       1  UNL1        0.0000
     66 H           0.6469   15.0267   17.2315 H       1  UNL1        0.0000
     67 C          -0.8636   12.1887   17.6071 C.3     1  UNL1        0.0000
     68 H          -1.7239   11.8015   17.0584 H       1  UNL1        0.0000
     69 H          -1.1283   12.2355   18.6750 H       1  UNL1        0.0000
     70 C           0.3436   11.2693   17.3762 C.3     1  UNL1        0.0000
     71 H           0.1403   10.2863   17.7990 H       1  UNL1        0.0000
     72 H           0.4840   11.1531   16.2992 H       1  UNL1        0.0000
@<TRIPOS>BOND
     1    40    38    1
     2    38    39    1
     3    38    10    1
     4    38    41    1
     5    10    35    1
     6    13    21    1
     7    43    41    1
     8    42    41    1
     9    41     3    1
    10    23    22    1
    11    35    37    1
    12    35    36    1
    13    35    32    1
    14    21    22   ar
    15    21    19   ar
    16    22    15   ar
    17     3    32    1
    18     3    29    1
    19    25    24    1
    20    34    32    1
    21    32    33    1
    22    28    26    1
    23    30    29    1
    24    24    15    1
    25    24     2    1
    26    20    19    1
    27    29    26    1
    28    29    31    1
    29    19    17   ar
    30    15    16   ar
    31    26     2    1
    32    26    27    1
    33     2     1    1
    34    17    16   ar
    35    17    18    1
    36    16     9    1
    37    72    70    1
    38    62    61    1
    39    47    46    1
    40    68    67    1
    41     9     1    1
    42    12    67    1
    43    12    64    1
    44    11     1    1
    45    11    45    1
    46    66    64    1
    47    70    67    1
    48    70    71    1
    49    70     5    1
    50    61    64    1
    51    61    63    1
    52    61     5    1
    53     1     5    1
    54     1     6    1
    55     1     4    1
    56    46    45   ar
    57    46    48   ar
    58    67    69    1
    59    64    65    1
    60     5    58    1
    61    45    44   ar
    62    49    48    1
    63     6     7    2
    64    48    50   ar
    65     7     8    2
    66     4    55    1
    67     4    53    1
    68    44    53    1
    69    44    51   ar
    70    58    60    1
    71    58    59    1
    72    58    55    1
    73    57    55    1
    74    50    51   ar
    75    50    14    1
    76    55    56    1
    77    53    54    1
    78    51    52    1
