@<TRIPOS>MOLECULE
CSD_code = FAKPIR | q = 0 | S = 0 | Stoichiometry = C13H20CoN7O9 | MND = 6
 50 52 0 0 0
SMALL
GASTEIGER

@<TRIPOS>ATOM
      1 CO          9.5474    0.8568    6.8567 Co.oh   1  UNL1        0.0000
      2 O          10.7068    1.1555    8.3485 O.2     1  UNL1        0.0000
      3 O           8.4867    0.7223    5.3266 O.2     1  UNL1        0.0000
      4 O          11.3849    4.5078    2.9590 O.3     1  UNL1        0.0000
      5 O           8.8463   -0.8502    8.6354 O.2     1  UNL1        0.0000
      6 O           8.7360   -1.6045    6.6223 O.2     1  UNL1        0.0000
      7 O          11.1192    0.4586    4.7461 O.2     1  UNL1        0.0000
      8 O          11.6909   -0.6679    6.4855 O.2     1  UNL1        0.0000
      9 O           8.3261    2.3631    8.7641 O.2     1  UNL1        0.0000
     10 O           7.0051    1.8261    7.1663 O.2     1  UNL1        0.0000
     11 N          10.2001    2.6219    6.3631 N.pl3   1  UNL1        0.0000
     12 N          10.9584    3.1904    7.3332 N.2     1  UNL1        0.0000
     13 N          11.0924    3.0792   10.7002 N.4     1  UNL1        0.0000
     14 N           7.6890    1.7812    2.0867 N.pl3   1  UNL1        0.0000
     15 N           8.9740   -0.7346    7.4311 N.pl3   1  UNL1        0.0000
     16 N          10.9450    0.1040    5.9087 N.pl3   1  UNL1        0.0000
     17 N           8.0955    1.7409    7.7111 N.pl3   1  UNL1        0.0000
     18 C          11.1368    2.3401    8.3163 C.2     1  UNL1        0.0000
     19 C          10.0478    3.2396    5.2361 C.3     1  UNL1        0.0000
     20 H          10.5621    4.1854    5.0986 H       1  UNL1        0.0000
     21 C           9.2600    2.7107    4.1726 C.2     1  UNL1        0.0000
     22 C           8.5089    1.4802    4.3187 C.2     1  UNL1        0.0000
     23 C           7.7027    1.0721    3.2148 C.3     1  UNL1        0.0000
     24 C           6.8872   -0.1586    3.3466 C.3     1  UNL1        0.0000
     25 H           6.4142   -0.4405    2.4091 H       1  UNL1        0.0000
     26 H           6.1285   -0.0089    4.1153 H       1  UNL1        0.0000
     27 H           7.5207   -0.9670    3.7121 H       1  UNL1        0.0000
     28 C           8.4255    2.8992    1.9115 C.2     1  UNL1        0.0000
     29 H           8.3616    3.3814    0.9503 H       1  UNL1        0.0000
     30 C           9.2045    3.3868    2.9331 C.2     1  UNL1        0.0000
     31 C          10.0142    4.6354    2.6694 C.3     1  UNL1        0.0000
     32 H           9.8792    4.9275    1.6167 H       1  UNL1        0.0000
     33 H           9.6530    5.4589    3.2948 H       1  UNL1        0.0000
     34 C          11.9475    2.8314    9.5080 C.3     1  UNL1        0.0000
     35 H          12.6794    2.0603    9.7573 H       1  UNL1        0.0000
     36 H          12.4535    3.7558    9.2280 H       1  UNL1        0.0000
     37 C          10.3775    1.8501   11.0948 C.3     1  UNL1        0.0000
     38 H          11.0805    1.0333   11.2391 H       1  UNL1        0.0000
     39 H           9.6739    1.5588   10.3124 H       1  UNL1        0.0000
     40 H           9.8261    2.0282   12.0152 H       1  UNL1        0.0000
     41 C          10.1072    4.1301   10.3917 C.3     1  UNL1        0.0000
     42 H          10.6084    5.0146   10.0050 H       1  UNL1        0.0000
     43 H           9.5494    4.3872   11.2896 H       1  UNL1        0.0000
     44 H           9.4058    3.7562    9.6434 H       1  UNL1        0.0000
     45 C          11.9553    3.5202   11.8069 C.3     1  UNL1        0.0000
     46 H          12.6830    2.7466   12.0468 H       1  UNL1        0.0000
     47 H          11.3530    3.7195   12.6920 H       1  UNL1        0.0000
     48 H          12.4861    4.4301   11.5306 H       1  UNL1        0.0000
     49 H           7.1105    1.4493    1.3222 H       1  UNL1        0.0000
     50 H          11.6979    3.6501    2.6497 H       1  UNL1        0.0000
@<TRIPOS>BOND
     1    29    28    1
     2    49    14    1
     3    32    31    1
     4    28    14    1
     5    28    30    2
     6    14    23    1
     7    25    24    1
     8    50     4    1
     9    31    30    1
    10    31     4    1
    11    31    33    1
    12    30    21    1
    13    23    24    1
    14    23    22    1
    15    24    27    1
    16    24    26    1
    17    21    22    2
    18    21    19    1
    19    22     3    1
    20     7    16    2
    21    20    19    1
    22    19    11    1
    23     3     1    1
    24    16     8    2
    25    16     1    1
    26    11     1    1
    27    11    12    1
    28     6    15    2
    29     1    15    1
    30     1    17    1
    31     1     2    1
    32    10    17    2
    33    12    18    2
    34    15     5    2
    35    17     9    2
    36    18     2    1
    37    18    34    1
    38    36    34    1
    39    34    35    1
    40    34    13    1
    41    44    41    1
    42    42    41    1
    43    39    37    1
    44    41    13    1
    45    41    43    1
    46    13    37    1
    47    13    45    1
    48    37    38    1
    49    37    40    1
    50    48    45    1
    51    45    46    1
    52    45    47    1
