@<TRIPOS>MOLECULE
CSD_code = FAMVOH | q = 0 | S = 0 | Stoichiometry = C36H49CoN2 | MND = 8
 88 91 0 0 0
SMALL
GASTEIGER

@<TRIPOS>ATOM
      1 CO          3.0929    4.2784    3.3700 Co.oh   1  UNL1        0.0000
      2 N           4.5180    4.6324    4.5265 N.pl3   1  UNL1        0.0000
      3 N           4.1597    3.3350    2.2422 N.pl3   1  UNL1        0.0000
      4 C           3.3374    2.8243    1.2210 C.ar    1  UNL1        0.0000
      5 C           3.9299    6.7366    5.5960 C.ar    1  UNL1        0.0000
      6 C           6.2509    3.5335    3.3192 C.2     1  UNL1        0.0000
      7 H           7.3015    3.2913    3.2915 H       1  UNL1        0.0000
      8 C           5.7787    4.2612    4.4071 C.3     1  UNL1        0.0000
      9 C           3.4678    7.4152    6.7127 C.ar    1  UNL1        0.0000
     10 H           3.3544    8.4876    6.6832 H       1  UNL1        0.0000
     11 C           4.0860    5.3382    5.6670 C.ar    1  UNL1        0.0000
     12 C           5.4509    3.0795    2.2759 C.2     1  UNL1        0.0000
     13 C           3.1001    3.5910    0.0642 C.ar    1  UNL1        0.0000
     14 C           3.8005    4.6516    6.8611 C.ar    1  UNL1        0.0000
     15 C           4.2865    7.4719    4.3214 C.3     1  UNL1        0.0000
     16 H           4.0889    6.7882    3.4824 H       1  UNL1        0.0000
     17 C           3.1476    6.7386    7.8758 C.ar    1  UNL1        0.0000
     18 H           2.7779    7.2829    8.7326 H       1  UNL1        0.0000
     19 C           0.8551    5.7618    2.3970 C.2     1  UNL1        0.0000
     20 C           2.7747    1.5406    1.3574 C.ar    1  UNL1        0.0000
     21 C           1.4181    5.5583    3.6737 C.3     1  UNL1        0.0000
     22 H           1.7053    6.4264    4.2538 H       1  UNL1        0.0000
     23 C           1.2582    4.3167    4.3306 C.3     1  UNL1        0.0000
     24 H           1.4126    4.2610    5.4024 H       1  UNL1        0.0000
     25 C           5.7792    7.8154    4.3025 C.3     1  UNL1        0.0000
     26 H           6.0506    8.3773    5.1946 H       1  UNL1        0.0000
     27 H           6.0103    8.4215    3.4288 H       1  UNL1        0.0000
     28 H           6.3807    6.9140    4.2596 H       1  UNL1        0.0000
     29 C           3.5730    5.0272   -0.0022 C.3     1  UNL1        0.0000
     30 H           3.5149    5.4282    1.0226 H       1  UNL1        0.0000
     31 C           0.2451    4.7016    1.7557 C.2     1  UNL1        0.0000
     32 H          -0.1851    4.8379    0.7733 H       1  UNL1        0.0000
     33 C           3.3151    5.3692    7.9445 C.ar    1  UNL1        0.0000
     34 H           3.0759    4.8535    8.8626 H       1  UNL1        0.0000
     35 C           6.7958    4.5944    5.4730 C.3     1  UNL1        0.0000
     36 H           6.4162    5.3284    6.1787 H       1  UNL1        0.0000
     37 H           7.7072    4.9738    5.0150 H       1  UNL1        0.0000
     38 H           7.0558    3.6878    6.0179 H       1  UNL1        0.0000
     39 C           0.8620    7.1406    1.8060 C.3     1  UNL1        0.0000
     40 H           1.8802    7.4985    1.6669 H       1  UNL1        0.0000
     41 H           0.3562    7.8337    2.4787 H       1  UNL1        0.0000
     42 H           0.3503    7.1591    0.8473 H       1  UNL1        0.0000
     43 C           5.0290    5.1335   -0.4652 C.3     1  UNL1        0.0000
     44 H           5.7037    4.7717    0.3022 H       1  UNL1        0.0000
     45 H           5.2763    6.1734   -0.6696 H       1  UNL1        0.0000
     46 H           5.1828    4.5569   -1.3756 H       1  UNL1        0.0000
     47 C           4.0476    3.1644    6.9981 C.3     1  UNL1        0.0000
     48 H           4.5117    2.8029    6.0762 H       1  UNL1        0.0000
     49 C           2.6959    5.8895   -0.9096 C.3     1  UNL1        0.0000
     50 H           2.8935    5.6756   -1.9580 H       1  UNL1        0.0000
     51 H           2.9134    6.9421   -0.7405 H       1  UNL1        0.0000
     52 H           1.6424    5.7172   -0.7098 H       1  UNL1        0.0000
     53 C           6.1361    2.2877    1.1858 C.3     1  UNL1        0.0000
     54 H           6.6863    1.4530    1.6168 H       1  UNL1        0.0000
     55 H           6.8625    2.9147    0.6707 H       1  UNL1        0.0000
     56 H           5.4234    1.9078    0.4590 H       1  UNL1        0.0000
     57 C           2.0845    1.0017    0.2827 C.ar    1  UNL1        0.0000
     58 H           1.6707    0.0078    0.3536 H       1  UNL1        0.0000
     59 C           2.4031    3.0101   -0.9837 C.ar    1  UNL1        0.0000
     60 H           2.2345    3.5646   -1.8932 H       1  UNL1        0.0000
     61 C           0.1155    3.4621    2.3855 C.2     1  UNL1        0.0000
     62 H          -0.3967    2.6621    1.8701 H       1  UNL1        0.0000
     63 C           0.5766    3.2799    3.6704 C.2     1  UNL1        0.0000
     64 H           0.3787    2.3559    4.1951 H       1  UNL1        0.0000
     65 C           3.4749    8.7507    4.1100 C.3     1  UNL1        0.0000
     66 H           2.4124    8.5815    4.2687 H       1  UNL1        0.0000
     67 H           3.6161    9.1095    3.0923 H       1  UNL1        0.0000
     68 H           3.8032    9.5380    4.7853 H       1  UNL1        0.0000
     69 C           1.9235    1.7166   -0.8892 C.ar    1  UNL1        0.0000
     70 H           1.4010    1.2733   -1.7246 H       1  UNL1        0.0000
     71 C           2.8946    0.7844    2.6626 C.3     1  UNL1        0.0000
     72 H           3.0169    1.5313    3.4607 H       1  UNL1        0.0000
     73 C           5.0029    2.8889    8.1644 C.3     1  UNL1        0.0000
     74 H           5.8820    3.5259    8.1072 H       1  UNL1        0.0000
     75 H           5.3260    1.8500    8.1453 H       1  UNL1        0.0000
     76 H           4.5132    3.0730    9.1177 H       1  UNL1        0.0000
     77 C           1.6448   -0.0460    2.9650 C.3     1  UNL1        0.0000
     78 H           0.7394    0.5174    2.7566 H       1  UNL1        0.0000
     79 H           1.6410   -0.3349    4.0143 H       1  UNL1        0.0000
     80 H           1.6288   -0.9570    2.3703 H       1  UNL1        0.0000
     81 C           4.1188   -0.1349    2.6811 C.3     1  UNL1        0.0000
     82 H           4.1278   -0.7744    1.8002 H       1  UNL1        0.0000
     83 H           4.0922   -0.7668    3.5667 H       1  UNL1        0.0000
     84 H           5.0357    0.4427    2.7051 H       1  UNL1        0.0000
     85 C           2.7491    2.3796    7.2021 C.3     1  UNL1        0.0000
     86 H           2.1731    2.7833    8.0320 H       1  UNL1        0.0000
     87 H           2.9791    1.3381    7.4184 H       1  UNL1        0.0000
     88 H           2.1380    2.4106    6.3049 H       1  UNL1        0.0000
@<TRIPOS>BOND
     1    50    49    1
     2    60    59    1
     3    70    69    1
     4    46    43    1
     5    59    69   ar
     6    59    13   ar
     7    49    51    1
     8    49    52    1
     9    49    29    1
    10    69    57   ar
    11    45    43    1
    12    43    29    1
    13    43    44    1
    14    29    13    1
    15    29    30    1
    16    13     4   ar
    17    57    58    1
    18    57    20   ar
    19    56    53    1
    20    55    53    1
    21    32    31    1
    22    42    39    1
    23    53    54    1
    24    53    12    1
    25     4    20   ar
    26     4     3    1
    27    20    71    1
    28    40    39    1
    29    31    61    1
    30    31    19    2
    31    82    81    1
    32    39    19    1
    33    39    41    1
    34    62    61    1
    35     3    12    1
    36     3     1    1
    37    12     6    2
    38    80    77    1
    39    61    63    2
    40    19    21    1
    41    71    81    1
    42    71    77    1
    43    71    72    1
    44    81    84    1
    45    81    83    1
    46    78    77    1
    47    77    79    1
    48    67    65    1
    49     7     6    1
    50     6     8    1
    51     1    23    1
    52     1     2    1
    53    27    25    1
    54    16    15    1
    55    63    64    1
    56    63    23    1
    57    21    22    1
    58    21    23    1
    59    65    66    1
    60    65    15    1
    61    65    68    1
    62    28    25    1
    63    25    15    1
    64    25    26    1
    65    15     5    1
    66    23    24    1
    67     8     2    1
    68     8    35    1
    69     2    11    1
    70    37    35    1
    71    35    38    1
    72    35    36    1
    73     5    11   ar
    74     5     9   ar
    75    11    14   ar
    76    48    47    1
    77    88    85    1
    78    10     9    1
    79     9    17   ar
    80    14    47    1
    81    14    33   ar
    82    47    85    1
    83    47    73    1
    84    85    87    1
    85    85    86    1
    86    17    33   ar
    87    17    18    1
    88    33    34    1
    89    74    73    1
    90    75    73    1
    91    73    76    1
