@<TRIPOS>MOLECULE
CSD_code = FELTIC | q = 1 | S = 0 | Stoichiometry = C52H60CoN6O2(1+) | MND = 6
 121 130 0 0 0
SMALL
GASTEIGER

@<TRIPOS>ATOM
      1 CO          9.4979    7.9381   16.2846 Co.oh   1  UNL1        0.0000
      2 O           9.3400    8.7866   17.9252 O.3     1  UNL1        0.0000
      3 O           9.6487    6.2933   17.1267 O.3     1  UNL1        0.0000
      4 N           9.6115    7.0457   14.5827 N.pl3   1  UNL1        0.0000
      5 N           7.6820    7.5708   16.1582 N.3     1  UNL1        0.0000
      6 N          11.3129    8.3069   16.4025 N.3     1  UNL1        0.0000
      7 N           9.3874    9.6616   15.4411 N.pl3   1  UNL1        0.5000
      8 C           8.3052    8.8688   18.6974 C.ar    1  UNL1        0.0000
      9 C           8.4449    9.4404   20.0008 C.ar    1  UNL1        0.0000
     10 C           5.9051    8.5777   19.1705 C.ar    1  UNL1        0.0000
     11 H           4.9499    8.2266   18.8153 H       1  UNL1        0.0000
     12 N          11.6268    9.5523   15.9097 N.pl3   1  UNL1        0.5000
     13 C          13.1176    5.6306   18.0856 C.ar    1  UNL1        0.0000
     14 H          14.0820    6.0938   17.9537 H       1  UNL1        0.0000
     15 C           7.0085    8.4331   18.3017 C.ar    1  UNL1        0.0000
     16 C          10.6928    5.7487   17.6614 C.ar    1  UNL1        0.0000
     17 C           6.7748    7.8124   17.0525 C.3     1  UNL1        0.0000
     18 H           5.7496    7.5100   16.8493 H       1  UNL1        0.0000
     19 C          12.2305    7.5502   16.9207 C.3     1  UNL1        0.0000
     20 H          13.2609    7.8997   16.9107 H       1  UNL1        0.0000
     21 C           6.0410    9.1313   20.4133 C.ar    1  UNL1        0.0000
     22 N           7.3637    6.9036   14.9981 N.pl3   1  UNL1        0.0000
     23 C          10.5526    4.5299   18.3973 C.ar    1  UNL1        0.0000
     24 C          12.9829    4.4512   18.7638 C.ar    1  UNL1        0.0000
     25 C           9.1666    3.9261   18.5929 C.3     1  UNL1        0.0000
     26 C          11.6799    3.9372   18.9085 C.ar    1  UNL1        0.0000
     27 H          11.5700    3.0205   19.4609 H       1  UNL1        0.0000
     28 C           6.0280    6.4888   14.7062 C.ar    1  UNL1        0.0000
     29 C          12.9413   10.0977   16.0249 C.ar    1  UNL1        0.0000
     30 C           9.8155    9.9179   20.4677 C.3     1  UNL1        0.0000
     31 C          12.0006    6.2996   17.5389 C.ar    1  UNL1        0.0000
     32 C           7.3299    9.5513   20.7934 C.ar    1  UNL1        0.0000
     33 H           7.4390    9.9841   21.7723 H       1  UNL1        0.0000
     34 C          14.1488    3.6915   19.3743 C.3     1  UNL1        0.0000
     35 C           8.3226   10.3358   14.9946 C.3     1  UNL1        0.0000
     36 H           7.3781    9.8117   15.0190 H       1  UNL1        0.0000
     37 C          10.5847   10.2835   15.4441 C.2     1  UNL1        0.0000
     38 C           8.4043    6.5898   14.1898 C.3     1  UNL1        0.0000
     39 C           4.8872    9.3143   21.3850 C.3     1  UNL1        0.0000
     40 C          13.4418   10.4402   17.2753 C.ar    1  UNL1        0.0000
     41 H          12.8332   10.2884   18.1535 H       1  UNL1        0.0000
     42 C           9.1907    2.6373   19.4210 C.3     1  UNL1        0.0000
     43 H           9.7730    1.8608   18.9304 H       1  UNL1        0.0000
     44 H           8.1736    2.2682   19.5338 H       1  UNL1        0.0000
     45 H           9.5905    2.8151   20.4163 H       1  UNL1        0.0000
     46 C          10.6758    6.7538   13.8278 C.2     1  UNL1        0.0000
     47 H          11.6287    7.1222   14.1791 H       1  UNL1        0.0000
     48 C           8.2763    4.9382   19.3287 C.3     1  UNL1        0.0000
     49 H           8.6955    5.1618   20.3072 H       1  UNL1        0.0000
     50 H           7.2781    4.5283   19.4681 H       1  UNL1        0.0000
     51 H           8.1956    5.8663   18.7720 H       1  UNL1        0.0000
     52 C          10.7998    8.7392   20.4456 C.3     1  UNL1        0.0000
     53 H          10.8808    8.3136   19.4504 H       1  UNL1        0.0000
     54 H          10.4610    7.9582   21.1227 H       1  UNL1        0.0000
     55 H          11.7860    9.0679   20.7678 H       1  UNL1        0.0000
     56 C           8.5674    3.5874   17.2201 C.3     1  UNL1        0.0000
     57 H           8.4948    4.4795   16.6050 H       1  UNL1        0.0000
     58 H           7.5762    3.1553   17.3436 H       1  UNL1        0.0000
     59 H           9.1955    2.8636   16.7044 H       1  UNL1        0.0000
     60 C          10.7308   11.6081   14.9979 C.2     1  UNL1        0.0000
     61 H          11.6992   12.0786   15.0361 H       1  UNL1        0.0000
     62 C           9.7960   10.4798   21.8929 C.3     1  UNL1        0.0000
     63 H           9.4761    9.7272   22.6093 H       1  UNL1        0.0000
     64 H           9.1479   11.3498   21.9683 H       1  UNL1        0.0000
     65 H          10.8018   10.7914   22.1664 H       1  UNL1        0.0000
     66 C           5.4788    5.3962   15.3657 C.ar    1  UNL1        0.0000
     67 H           6.0664    4.8636   16.0977 H       1  UNL1        0.0000
     68 C          10.2957   11.0370   19.5315 C.3     1  UNL1        0.0000
     69 H          11.2708   11.4002   19.8505 H       1  UNL1        0.0000
     70 H           9.5962   11.8703   19.5553 H       1  UNL1        0.0000
     71 H          10.3659   10.6786   18.5086 H       1  UNL1        0.0000
     72 C           8.2437    5.8320   13.0172 C.2     1  UNL1        0.0000
     73 H           7.2639    5.4761   12.7447 H       1  UNL1        0.0000
     74 C           8.3897   11.6271   14.5306 C.2     1  UNL1        0.0000
     75 H           7.5019   12.1246   14.1792 H       1  UNL1        0.0000
     76 C          14.7159   10.9710   17.3737 C.ar    1  UNL1        0.0000
     77 H          15.1091   11.2400   18.3417 H       1  UNL1        0.0000
     78 C           5.2909    7.1911   13.7614 C.ar    1  UNL1        0.0000
     79 H           5.7334    8.0369   13.2558 H       1  UNL1        0.0000
     80 C           3.4453    5.7014   14.1260 C.ar    1  UNL1        0.0000
     81 H           2.4368    5.3933   13.8988 H       1  UNL1        0.0000
     82 C          10.5971    6.0236   12.6667 C.2     1  UNL1        0.0000
     83 H          11.4854    5.8175   12.0943 H       1  UNL1        0.0000
     84 C           9.3489    5.5507   12.2548 C.2     1  UNL1        0.0000
     85 H           9.2558    4.9666   11.3532 H       1  UNL1        0.0000
     86 C           9.6254   12.2784   14.5387 C.2     1  UNL1        0.0000
     87 H           9.7087   13.2970   14.1951 H       1  UNL1        0.0000
     88 C          15.4822   11.1604   16.2348 C.ar    1  UNL1        0.0000
     89 H          16.4740   11.5766   16.3165 H       1  UNL1        0.0000
     90 C          13.7077   10.2785   14.8807 C.ar    1  UNL1        0.0000
     91 H          13.3047   10.0059   13.9164 H       1  UNL1        0.0000
     92 C           4.1836    5.0072   15.0711 C.ar    1  UNL1        0.0000
     93 H           3.7520    4.1587   15.5787 H       1  UNL1        0.0000
     94 C           3.9983    6.7898   13.4710 C.ar    1  UNL1        0.0000
     95 H           3.4230    7.3297   12.7351 H       1  UNL1        0.0000
     96 C          15.4945    4.3623   19.0865 C.3     1  UNL1        0.0000
     97 H          15.5362    5.3597   19.5177 H       1  UNL1        0.0000
     98 H          15.6788    4.4256   18.0164 H       1  UNL1        0.0000
     99 H          16.2939    3.7735   19.5301 H       1  UNL1        0.0000
    100 C          13.9588    3.6256   20.8960 C.3     1  UNL1        0.0000
    101 H          13.0456    3.1004   21.1610 H       1  UNL1        0.0000
    102 H          13.9085    4.6293   21.3129 H       1  UNL1        0.0000
    103 H          14.7955    3.1034   21.3537 H       1  UNL1        0.0000
    104 C           5.1962    8.5604   22.6856 C.3     1  UNL1        0.0000
    105 H           4.3640    8.6581   23.3785 H       1  UNL1        0.0000
    106 H           6.0866    8.9485   23.1717 H       1  UNL1        0.0000
    107 H           5.3522    7.5036   22.4802 H       1  UNL1        0.0000
    108 C           3.5660    8.7798   20.8261 C.3     1  UNL1        0.0000
    109 H           3.2828    9.3053   19.9170 H       1  UNL1        0.0000
    110 H           2.7766    8.9303   21.5586 H       1  UNL1        0.0000
    111 H           3.6323    7.7142   20.6191 H       1  UNL1        0.0000
    112 C          14.1884    2.2721   18.7911 C.3     1  UNL1        0.0000
    113 H          15.0394    1.7284   19.1939 H       1  UNL1        0.0000
    114 H          14.2862    2.3120   17.7082 H       1  UNL1        0.0000
    115 H          13.2882    1.7143   19.0324 H       1  UNL1        0.0000
    116 C           4.7149   10.8113   21.6772 C.3     1  UNL1        0.0000
    117 H           5.6044   11.2327   22.1368 H       1  UNL1        0.0000
    118 H           3.8783   10.9648   22.3544 H       1  UNL1        0.0000
    119 H           4.5166   11.3547   20.7556 H       1  UNL1        0.0000
    120 C          14.9784   10.8165   14.9909 C.ar    1  UNL1        0.0000
    121 H          15.5756   10.9633   14.1044 H       1  UNL1        0.0000
@<TRIPOS>BOND
     1    85    84    1
     2    83    82    1
     3    84    82    1
     4    84    72    2
     5    82    46    2
     6    95    94    1
     7    73    72    1
     8    72    38    1
     9    79    78    1
    10    94    78   ar
    11    94    80   ar
    12    78    28   ar
    13    46    47    1
    14    46     4    1
    15    81    80    1
    16    91    90    1
    17   121   120    1
    18    80    92   ar
    19    75    74    1
    20    38     4    1
    21    38    22    1
    22    87    86    1
    23    74    86    2
    24    74    35    1
    25    86    60    1
    26     4     1    1
    27    28    22    1
    28    28    66   ar
    29    90   120   ar
    30    90    29   ar
    31   120    88   ar
    32    35    36    1
    33    35     7    1
    34    60    61    1
    35    60    37    2
    36    22     5    1
    37    92    66   ar
    38    92    93    1
    39    66    67    1
    40     7    37    1
    41     7     1    1
    42    37    12    1
    43    12    29    1
    44    12     6    1
    45    29    40   ar
    46     5     1    1
    47     5    17    1
    48    88    89    1
    49    88    76   ar
    50     1     6    1
    51     1     3    1
    52     1     2    1
    53     6    19    1
    54    57    56    1
    55    59    56    1
    56    18    17    1
    57    20    19    1
    58    19    31    1
    59    17    15    1
    60     3    16    1
    61    56    58    1
    62    56    25    1
    63    40    76   ar
    64    40    41    1
    65    76    77    1
    66    31    16   ar
    67    31    13   ar
    68    16    23   ar
    69   114   112    1
    70     2     8    1
    71    14    13    1
    72    98    96    1
    73    13    24   ar
    74    15     8   ar
    75    15    10   ar
    76    23    25    1
    77    23    26   ar
    78    71    68    1
    79    25    48    1
    80    25    42    1
    81     8     9   ar
    82    24    26   ar
    83    24    34    1
    84    51    48    1
    85   112   115    1
    86   112   113    1
    87   112    34    1
    88    11    10    1
    89    26    27    1
    90    43    42    1
    91    96    34    1
    92    96    97    1
    93    96    99    1
    94    10    21   ar
    95    48    50    1
    96    48    49    1
    97    34   100    1
    98    42    44    1
    99    42    45    1
   100    53    52    1
   101    68    70    1
   102    68    69    1
   103    68    30    1
   104   109   108    1
   105     9    30    1
   106     9    32   ar
   107    21    32   ar
   108    21    39    1
   109    52    30    1
   110    52    55    1
   111    52    54    1
   112    30    62    1
   113   111   108    1
   114   119   116    1
   115    32    33    1
   116   108    39    1
   117   108   110    1
   118   100   101    1
   119   100   102    1
   120   100   103    1
   121    39   116    1
   122    39   104    1
   123   116   117    1
   124   116   118    1
   125    62    64    1
   126    62    65    1
   127    62    63    1
   128   107   104    1
   129   104   106    1
   130   104   105    1
