@<TRIPOS>MOLECULE
CSD_code = FIRPAA | q = 0 | S = 0 | Stoichiometry = C15H12ClCoN4O2S | MND = 5
 36 39 0 0 0
SMALL
GASTEIGER

@<TRIPOS>ATOM
      1 CO          0.2932    7.7159    4.5320 Co.oh   1  UNL1        0.0000
      2 N          -0.4439    8.8080    3.1616 N.pl3   1  UNL1        0.0000
      3 N           0.1889    9.1729    5.5456 N.pl3   1  UNL1        0.0000
      4 N           0.6212    9.0899    6.7763 N.2     1  UNL1        0.0000
      5 N           1.1259    6.5975    3.4112 N.2     1  UNL1        0.0000
      6 O           1.1357    7.0044    6.0783 O.2     1  UNL1        0.0000
      7 O           2.9820    6.6767   12.1442 O.3     1  UNL1        0.0000
      8 S           2.8957    4.6830    2.5300 S.2     1  UNL1        0.0000
      9 CL         -1.6733    7.2022    5.1989 Cl      1  UNL1        0.0000
     10 C          -0.8505    8.4830    1.9395 C.3     1  UNL1        0.0000
     11 H          -0.6344    7.4746    1.6157 H       1  UNL1        0.0000
     12 C          -1.5023    9.3765    1.1105 C.2     1  UNL1        0.0000
     13 H          -1.8058    9.0699    0.1233 H       1  UNL1        0.0000
     14 C          -1.7521   10.6662    1.5711 C.2     1  UNL1        0.0000
     15 H          -2.2580   11.3831    0.9428 H       1  UNL1        0.0000
     16 C          -1.3527   11.0096    2.8444 C.2     1  UNL1        0.0000
     17 H          -1.5390   11.9909    3.2501 H       1  UNL1        0.0000
     18 C          -0.7039   10.0568    3.6368 C.2     1  UNL1        0.0000
     19 C          -0.2698   10.2568    4.9785 C.3     1  UNL1        0.0000
     20 H          -0.3220   11.1984    5.5035 H       1  UNL1        0.0000
     21 C           1.1018    7.8663    7.0145 C.2     1  UNL1        0.0000
     22 C           1.6025    7.5474    8.3433 C.ar    1  UNL1        0.0000
     23 C           1.5906    8.5008    9.3664 C.ar    1  UNL1        0.0000
     24 H           1.2092    9.4868    9.1563 H       1  UNL1        0.0000
     25 C           2.0575    8.1746   10.6157 C.ar    1  UNL1        0.0000
     26 H           2.0570    8.8933   11.4198 H       1  UNL1        0.0000
     27 C           2.5487    6.8891   10.8817 C.ar    1  UNL1        0.0000
     28 C           2.5609    5.9377    9.8615 C.ar    1  UNL1        0.0000
     29 H           2.9309    4.9402   10.0376 H       1  UNL1        0.0000
     30 C           2.0922    6.2691    8.6074 C.ar    1  UNL1        0.0000
     31 H           2.0940    5.5391    7.8124 H       1  UNL1        0.0000
     32 C           3.4843    5.4060   12.4909 C.3     1  UNL1        0.0000
     33 H           3.7635    5.4776   13.5407 H       1  UNL1        0.0000
     34 H           4.3674    5.1488   11.8982 H       1  UNL1        0.0000
     35 H           2.7239    4.6286   12.3707 H       1  UNL1        0.0000
     36 C           1.8990    5.7602    3.0869 C.1     1  UNL1        0.0000
@<TRIPOS>BOND
     1    13    12    1
     2    15    14    1
     3    12    14    2
     4    12    10    1
     5    14    16    1
     6    11    10    1
     7    10     2    1
     8     8    36    2
     9    16    17    1
    10    16    18    2
    11    36     5    2
    12     2    18    1
    13     2     1    1
    14     5     1    1
    15    18    19    1
    16     1     9    1
    17     1     3    1
    18     1     6    1
    19    19    20    1
    20    19     3    1
    21     3     4    1
    22     6    21    1
    23     4    21    2
    24    21    22    1
    25    31    30    1
    26    22    30   ar
    27    22    23   ar
    28    30    28   ar
    29    24    23    1
    30    23    25   ar
    31    28    29    1
    32    28    27   ar
    33    25    27   ar
    34    25    26    1
    35    27     7    1
    36    34    32    1
    37     7    32    1
    38    35    32    1
    39    32    33    1
