@<TRIPOS>MOLECULE
CSD_code = FOMVEJ | q = 1 | S = 0 | Stoichiometry = C9H20Cl2CoN4(1+) | MND = 6
 36 38 0 0 0
SMALL
GASTEIGER

@<TRIPOS>ATOM
      1 CO          2.6356    8.0924    5.4495 Co.oh   1  UNL1        0.0000
      2 CL          2.9038    9.6794    6.9253 Cl      1  UNL1        0.0000
      3 N           4.5240    8.0924    5.1205 N.4     1  UNL1        0.0000
      4 N           2.5226    9.5041    4.0197 N.4     1  UNL1        0.0000
      5 N           0.8706    8.0922    5.8556 N.3     1  UNL1        0.0000
      6 C           4.9141    9.3428    4.4445 C.3     1  UNL1        0.0000
      7 H           5.8931    9.2433    3.9659 H       1  UNL1        0.0000
      8 H           4.9716   10.1224    5.2070 H       1  UNL1        0.0000
      9 C           3.8488    9.7326    3.4215 C.3     1  UNL1        0.0000
     10 H           3.9742   10.7812    3.1333 H       1  UNL1        0.0000
     11 H           3.9470    9.1288    2.5209 H       1  UNL1        0.0000
     12 C           1.4431    9.3815    3.0314 C.3     1  UNL1        0.0000
     13 H           1.4744   10.2323    2.3401 H       1  UNL1        0.0000
     14 H           0.4945    9.4182    3.5711 H       1  UNL1        0.0000
     15 C           1.5001    8.0924    2.2078 C.3     1  UNL1        0.0000
     16 H           2.3777    8.0924    1.5621 H       1  UNL1        0.0000
     17 H           0.6341    8.0924    1.5449 H       1  UNL1        0.0000
     18 C          -0.0839    8.0923    6.4977 C.3     1  UNL1        0.0000
     19 C          -1.2710    8.0924    7.2724 C.3     1  UNL1        0.0000
     20 H          -1.2855    8.9804    7.9059 H       1  UNL1        0.0000
     21 H          -2.1503    8.0923    6.6285 H       1  UNL1        0.0000
     22 H           4.9836    8.0924    6.0332 H       1  UNL1        0.0000
     23 H           2.3201   10.3137    4.6111 H       1  UNL1        0.0000
     24 CL          2.9027    6.5060    6.9264 Cl      1  UNL1        0.0000
     25 N           2.5227    6.6807    4.0195 N.4     1  UNL1        0.0000
     26 C           4.9142    6.8420    4.4445 C.3     1  UNL1        0.0000
     27 H           5.8932    6.9415    3.9659 H       1  UNL1        0.0000
     28 H           4.9716    6.0623    5.2068 H       1  UNL1        0.0000
     29 C           3.8489    6.4523    3.4214 C.3     1  UNL1        0.0000
     30 H           3.9742    5.4036    3.1331 H       1  UNL1        0.0000
     31 H           3.9471    7.0561    2.5209 H       1  UNL1        0.0000
     32 C           1.4431    6.8034    3.0314 C.3     1  UNL1        0.0000
     33 H           1.4744    5.9525    2.3400 H       1  UNL1        0.0000
     34 H           0.4945    6.7666    3.5711 H       1  UNL1        0.0000
     35 H          -1.2854    7.2045    7.9059 H       1  UNL1        0.0000
     36 H           2.3202    5.8711    4.6110 H       1  UNL1        0.0000
@<TRIPOS>BOND
     1    17    15    1
     2    16    15    1
     3    15    32    1
     4    15    12    1
     5    33    32    1
     6    13    12    1
     7    31    29    1
     8    11     9    1
     9    32    34    1
    10    32    25    1
    11    12    14    1
    12    12     4    1
    13    30    29    1
    14    10     9    1
    15    29    25    1
    16    29    26    1
    17     9     4    1
    18     9     6    1
    19     7     6    1
    20    27    26    1
    21    25    36    1
    22    25     1    1
    23     4    23    1
    24     4     1    1
    25    26     3    1
    26    26    28    1
    27     6     3    1
    28     6     8    1
    29     3     1    1
    30     3    22    1
    31     1     5    1
    32     1     2    1
    33     1    24    1
    34     5    18    1
    35    18    19    1
    36    21    19    1
    37    19    20    1
    38    19    35    1
