@<TRIPOS>MOLECULE
CSD_code = GIQNEA | q = 1 | S = 0 | Stoichiometry = C22H30CoN4O2(1+) | MND = 6
 59 64 0 0 0
SMALL
GASTEIGER

@<TRIPOS>ATOM
      1 CO          1.6113    9.1652    8.7300 Co.oh   1  UNL1        0.0000
      2 O           0.5296    9.5702   10.1721 O.3     1  UNL1        0.0000
      3 O           0.4272    7.8443    8.2137 O.3     1  UNL1        0.0000
      4 N           0.6931   10.3072    7.5571 N.3     1  UNL1        0.0000
      5 N           2.7759    8.6653    7.0581 N.4     1  UNL1        0.0000
      6 N           2.5637    8.0370    9.8888 N.3     1  UNL1        0.0000
      7 N           2.9209   10.6654    9.3912 N.4     1  UNL1        0.0000
      8 C          -0.6640   10.0622   10.1117 C.ar    1  UNL1        0.0000
      9 C          -1.4598   10.0155   11.2802 C.ar    1  UNL1        0.0000
     10 H          -1.0370    9.5386   12.1509 H       1  UNL1        0.0000
     11 C          -2.7192   10.5538   11.3060 C.ar    1  UNL1        0.0000
     12 H          -3.3025   10.4983   12.2127 H       1  UNL1        0.0000
     13 C          -3.2625   11.1675   10.1721 C.ar    1  UNL1        0.0000
     14 H          -4.2567   11.5824   10.2080 H       1  UNL1        0.0000
     15 C          -2.5217   11.2301    9.0233 C.ar    1  UNL1        0.0000
     16 H          -2.9284   11.6974    8.1383 H       1  UNL1        0.0000
     17 C          -1.2206   10.6910    8.9600 C.ar    1  UNL1        0.0000
     18 C          -0.4937   10.7735    7.7472 C.3     1  UNL1        0.0000
     19 H          -0.9896   11.2909    6.9245 H       1  UNL1        0.0000
     20 C           1.3182   10.4344    6.2592 C.3     1  UNL1        0.0000
     21 H           2.0981   11.2066    6.3056 H       1  UNL1        0.0000
     22 H           0.5950   10.7255    5.4901 H       1  UNL1        0.0000
     23 C           1.9464    9.0871    5.9188 C.3     1  UNL1        0.0000
     24 H           2.5239    9.1607    4.9924 H       1  UNL1        0.0000
     25 H           1.1532    8.3471    5.7966 H       1  UNL1        0.0000
     26 C           3.2234    7.2672    6.9300 C.3     1  UNL1        0.0000
     27 H           2.3371    6.6350    6.8623 H       1  UNL1        0.0000
     28 H           3.7575    6.9995    7.8439 H       1  UNL1        0.0000
     29 C           4.1370    7.0268    5.7324 C.3     1  UNL1        0.0000
     30 H           3.6060    7.1347    4.7912 H       1  UNL1        0.0000
     31 H           4.5276    6.0145    5.7779 H       1  UNL1        0.0000
     32 H           4.9818    7.7138    5.7413 H       1  UNL1        0.0000
     33 C           0.1613    6.7639    8.8714 C.ar    1  UNL1        0.0000
     34 C          -0.9867    6.0265    8.4981 C.ar    1  UNL1        0.0000
     35 H          -1.5984    6.4270    7.7046 H       1  UNL1        0.0000
     36 C          -1.3105    4.8497    9.1201 C.ar    1  UNL1        0.0000
     37 H          -2.1959    4.3130    8.8145 H       1  UNL1        0.0000
     38 C          -0.5144    4.3382   10.1508 C.ar    1  UNL1        0.0000
     39 H          -0.7858    3.4130   10.6328 H       1  UNL1        0.0000
     40 C           0.6035    5.0251   10.5390 C.ar    1  UNL1        0.0000
     41 H           1.2265    4.6451   11.3356 H       1  UNL1        0.0000
     42 C           0.9708    6.2372    9.9197 C.ar    1  UNL1        0.0000
     43 C           2.1326    6.9171   10.3600 C.3     1  UNL1        0.0000
     44 H           2.7029    6.4296   11.1522 H       1  UNL1        0.0000
     45 C           3.7531    8.6431   10.4448 C.3     1  UNL1        0.0000
     46 H           4.5861    8.5233    9.7389 H       1  UNL1        0.0000
     47 H           4.0389    8.1746   11.3926 H       1  UNL1        0.0000
     48 C           3.4596   10.1256   10.6491 C.3     1  UNL1        0.0000
     49 H           2.6858   10.2318   11.4117 H       1  UNL1        0.0000
     50 H           4.3641   10.6511   10.9702 H       1  UNL1        0.0000
     51 C           2.3757   12.0239    9.5596 C.3     1  UNL1        0.0000
     52 H           1.5892   11.9799   10.3143 H       1  UNL1        0.0000
     53 H           1.9174   12.3226    8.6146 H       1  UNL1        0.0000
     54 C           3.4266   13.0582    9.9505 C.3     1  UNL1        0.0000
     55 H           3.8079   12.8876   10.9531 H       1  UNL1        0.0000
     56 H           2.9795   14.0477    9.9304 H       1  UNL1        0.0000
     57 H           4.2605   13.0518    9.2502 H       1  UNL1        0.0000
     58 H           3.7082   10.7512    8.7439 H       1  UNL1        0.0000
     59 H           3.6220    9.2397    7.0376 H       1  UNL1        0.0000
@<TRIPOS>BOND
     1    30    29    1
     2    24    23    1
     3    22    20    1
     4    29    32    1
     5    29    31    1
     6    29    26    1
     7    25    23    1
     8    23    20    1
     9    23     5    1
    10    20    21    1
    11    20     4    1
    12    27    26    1
    13    19    18    1
    14    26     5    1
    15    26    28    1
    16    59     5    1
    17     5     1    1
    18     4    18    1
    19     4     1    1
    20    35    34    1
    21    18    17    1
    22    16    15    1
    23     3     1    1
    24     3    33    1
    25    34    33   ar
    26    34    36   ar
    27    53    51    1
    28     1     7    1
    29     1     6    1
    30     1     2    1
    31    58     7    1
    32    37    36    1
    33    33    42   ar
    34    17    15   ar
    35    17     8   ar
    36    15    13   ar
    37    36    38   ar
    38    57    54    1
    39     7    51    1
    40     7    48    1
    41    51    54    1
    42    51    52    1
    43    46    45    1
    44     6    43    1
    45     6    45    1
    46    42    43    1
    47    42    40   ar
    48    56    54    1
    49    54    55    1
    50     8     2    1
    51     8     9   ar
    52    38    40   ar
    53    38    39    1
    54    13    14    1
    55    13    11   ar
    56    43    44    1
    57    45    48    1
    58    45    47    1
    59    40    41    1
    60    48    50    1
    61    48    49    1
    62     9    11   ar
    63     9    10    1
    64    11    12    1
