@<TRIPOS>MOLECULE
CSD_code = GIQNIE | q = 1 | S = 0 | Stoichiometry = C22H28Br2CoN4O2(1+) | MND = 6
 59 64 0 0 0
SMALL
GASTEIGER

@<TRIPOS>ATOM
      1 CO          6.3768    3.9311    3.5356 Co.oh   1  UNL1        0.0000
      2 BR         11.9249    2.5981   -1.0969 Br      1  UNL1        0.0000
      3 BR          1.1714    5.4384    8.5284 Br      1  UNL1        0.0000
      4 O           7.2620    2.4723    2.6927 O.3     1  UNL1        0.0000
      5 O           5.4342    5.3747    4.2964 O.3     1  UNL1        0.0000
      6 N           6.6713    4.9714    1.9319 N.3     1  UNL1        0.0000
      7 N           4.6794    3.2754    2.6084 N.4     1  UNL1        0.0000
      8 H           5.1034    2.8108    1.8002 H       1  UNL1        0.0000
      9 N           6.1512    2.9367    5.1587 N.3     1  UNL1        0.0000
     10 N           8.1681    4.5604    4.3408 N.4     1  UNL1        0.0000
     11 C           8.5424    3.6935    1.0881 C.ar    1  UNL1        0.0000
     12 C           8.2452    2.5312    1.8576 C.ar    1  UNL1        0.0000
     13 C           9.0609    1.3916    1.6578 C.ar    1  UNL1        0.0000
     14 H           8.8224    0.4953    2.2094 H       1  UNL1        0.0000
     15 C          10.1269    1.4162    0.7980 C.ar    1  UNL1        0.0000
     16 H          10.7432    0.5397    0.6718 H       1  UNL1        0.0000
     17 C          10.4249    2.5790    0.0789 C.ar    1  UNL1        0.0000
     18 C           9.6362    3.6944    0.2060 C.ar    1  UNL1        0.0000
     19 H           9.8512    4.5819   -0.3697 H       1  UNL1        0.0000
     20 C           7.6356    4.7906    1.0957 C.3     1  UNL1        0.0000
     21 H           7.7423    5.4914    0.2656 H       1  UNL1        0.0000
     22 C           5.6623    5.9459    1.5808 C.3     1  UNL1        0.0000
     23 H           6.0398    6.6358    0.8186 H       1  UNL1        0.0000
     24 H           5.3843    6.5077    2.4723 H       1  UNL1        0.0000
     25 C           4.4369    5.2054    1.0343 C.3     1  UNL1        0.0000
     26 H           3.7052    5.9383    0.6940 H       1  UNL1        0.0000
     27 H           4.7396    4.6055    0.1712 H       1  UNL1        0.0000
     28 C           3.7735    4.3100    2.0759 C.3     1  UNL1        0.0000
     29 H           3.4061    4.9129    2.9084 H       1  UNL1        0.0000
     30 H           2.9099    3.8202    1.6080 H       1  UNL1        0.0000
     31 C           3.9052    2.2391    3.3015 C.3     1  UNL1        0.0000
     32 H           3.1481    1.8150    2.6351 H       1  UNL1        0.0000
     33 H           3.4001    2.6654    4.1668 H       1  UNL1        0.0000
     34 H           4.5669    1.4396    3.6264 H       1  UNL1        0.0000
     35 C           4.3688    4.2618    6.1186 C.ar    1  UNL1        0.0000
     36 C           4.5336    5.3516    5.2181 C.ar    1  UNL1        0.0000
     37 C           3.6744    6.4662    5.3789 C.ar    1  UNL1        0.0000
     38 H           3.8051    7.3082    4.7167 H       1  UNL1        0.0000
     39 C           2.7009    6.4856    6.3416 C.ar    1  UNL1        0.0000
     40 H           2.0504    7.3407    6.4395 H       1  UNL1        0.0000
     41 C           2.5422    5.3952    7.2046 C.ar    1  UNL1        0.0000
     42 C           3.3699    4.3061    7.1063 C.ar    1  UNL1        0.0000
     43 H           3.2556    3.4722    7.7822 H       1  UNL1        0.0000
     44 C           5.2844    3.1760    6.0824 C.3     1  UNL1        0.0000
     45 H           5.2594    2.5163    6.9512 H       1  UNL1        0.0000
     46 C           7.1575    1.9395    5.4559 C.3     1  UNL1        0.0000
     47 H           7.3822    1.3776    4.5493 H       1  UNL1        0.0000
     48 H           6.7988    1.2504    6.2276 H       1  UNL1        0.0000
     49 C           8.4229    2.6441    5.9554 C.3     1  UNL1        0.0000
     50 H           8.1774    3.2485    6.8306 H       1  UNL1        0.0000
     51 H           9.1511    1.8926    6.2610 H       1  UNL1        0.0000
     52 C           9.0608    3.5072    4.8703 C.3     1  UNL1        0.0000
     53 H           9.9638    3.9784    5.2779 H       1  UNL1        0.0000
     54 H           9.3631    2.8618    4.0440 H       1  UNL1        0.0000
     55 C           8.0710    5.6842    5.2821 C.3     1  UNL1        0.0000
     56 H           7.5571    5.3749    6.1892 H       1  UNL1        0.0000
     57 H           7.5045    6.4945    4.8304 H       1  UNL1        0.0000
     58 H           9.0664    6.0503    5.5487 H       1  UNL1        0.0000
     59 H           8.6447    4.9291    3.5154 H       1  UNL1        0.0000
@<TRIPOS>BOND
     1     2    17    1
     2    19    18    1
     3    17    18   ar
     4    17    15   ar
     5    27    25    1
     6    18    11   ar
     7    21    20    1
     8    16    15    1
     9    26    25    1
    10    15    13   ar
    11    23    22    1
    12    25    22    1
    13    25    28    1
    14    11    20    1
    15    11    12   ar
    16    20     6    1
    17    22     6    1
    18    22    24    1
    19    30    28    1
    20    13    12   ar
    21    13    14    1
    22     8     7    1
    23    12     4    1
    24     6     1    1
    25    28     7    1
    26    28    29    1
    27     7    31    1
    28     7     1    1
    29    32    31    1
    30     4     1    1
    31    31    34    1
    32    31    33    1
    33    59    10    1
    34     1     5    1
    35     1    10    1
    36     1     9    1
    37    54    52    1
    38     5    36    1
    39    10    52    1
    40    10    55    1
    41    47    46    1
    42    38    37    1
    43    57    55    1
    44    52    53    1
    45    52    49    1
    46     9    46    1
    47     9    44    1
    48    36    37   ar
    49    36    35   ar
    50    55    58    1
    51    55    56    1
    52    37    39   ar
    53    46    49    1
    54    46    48    1
    55    49    51    1
    56    49    50    1
    57    44    35    1
    58    44    45    1
    59    35    42   ar
    60    39    40    1
    61    39    41   ar
    62    42    41   ar
    63    42    43    1
    64    41     3    1
