@<TRIPOS>MOLECULE
CSD_code = GISWIR | q = 0 | S = 0 | Stoichiometry = C19H26CoN3O4S | MND = 6
 54 57 0 0 0
SMALL
GASTEIGER

@<TRIPOS>ATOM
      1 CO          3.8308    3.7089    3.2482 Co.oh   1  UNL1        0.0000
      2 N           2.1336    3.2710    2.0331 N.4     1  UNL1        0.0000
      3 C           2.3227    2.0369    1.2458 C.3     1  UNL1        0.0000
      4 H           1.4259    1.8743    0.6276 H       1  UNL1        0.0000
      5 H           3.1740    2.2040    0.5831 H       1  UNL1        0.0000
      6 C           2.5880    0.7656    2.0489 C.3     1  UNL1        0.0000
      7 H           2.6930   -0.0577    1.3396 H       1  UNL1        0.0000
      8 H           1.7435    0.5354    2.7021 H       1  UNL1        0.0000
      9 C           3.8660    0.8560    2.8879 C.3     1  UNL1        0.0000
     10 H           4.0404   -0.1036    3.3918 H       1  UNL1        0.0000
     11 H           4.7130    1.0784    2.2358 H       1  UNL1        0.0000
     12 N           3.7290    1.9210    3.8516 N.3     1  UNL1        0.0000
     13 C           3.5612    1.6035    5.0896 C.3     1  UNL1        0.0000
     14 H           3.6509    0.5489    5.3654 H       1  UNL1        0.0000
     15 C           3.2147    2.4802    6.1510 C.ar    1  UNL1        0.0000
     16 C           2.8119    3.8133    5.8677 C.ar    1  UNL1        0.0000
     17 O           2.7800    4.3100    4.6890 O.3     1  UNL1        0.0000
     18 C           2.3752    4.6198    6.9747 C.ar    1  UNL1        0.0000
     19 O           1.9762    5.8780    6.6197 O.3     1  UNL1        0.0000
     20 C           2.3904    4.1209    8.2525 C.ar    1  UNL1        0.0000
     21 H           2.0828    4.7329    9.0862 H       1  UNL1        0.0000
     22 C           2.8104    2.8067    8.5067 C.ar    1  UNL1        0.0000
     23 H           2.8123    2.4447    9.5232 H       1  UNL1        0.0000
     24 C           3.2038    2.0016    7.4773 C.ar    1  UNL1        0.0000
     25 H           3.5222    0.9862    7.6649 H       1  UNL1        0.0000
     26 C           0.9154    3.1683    2.8406 C.3     1  UNL1        0.0000
     27 H           0.0480    2.9566    2.2025 H       1  UNL1        0.0000
     28 H           0.7554    4.1073    3.3653 H       1  UNL1        0.0000
     29 H           1.0085    2.3833    3.5868 H       1  UNL1        0.0000
     30 C           1.9296    4.3585    1.0710 C.3     1  UNL1        0.0000
     31 H           1.0748    4.1406    0.4186 H       1  UNL1        0.0000
     32 H           2.8225    4.4850    0.4634 H       1  UNL1        0.0000
     33 H           1.7452    5.2848    1.6074 H       1  UNL1        0.0000
     34 C           1.5661    6.7542    7.6359 C.3     1  UNL1        0.0000
     35 H           1.3061    7.6863    7.1360 H       1  UNL1        0.0000
     36 H           2.3699    6.9431    8.3562 H       1  UNL1        0.0000
     37 H           0.6874    6.3730    8.1686 H       1  UNL1        0.0000
     38 O           3.8657    5.5081    2.6764 O.2     1  UNL1        0.0000
     39 C           4.7149    6.3804    2.9957 C.2     1  UNL1        0.0000
     40 C           5.7914    6.1845    3.8634 C.2     1  UNL1        0.0000
     41 H           6.4641    7.0040    4.0548 H       1  UNL1        0.0000
     42 C           6.0261    4.9604    4.4783 C.3     1  UNL1        0.0000
     43 O           5.3284    3.9144    4.3401 O.3     1  UNL1        0.0000
     44 C           7.2254    4.8305    5.3890 C.3     1  UNL1        0.0000
     45 H           7.1347    3.9277    5.9874 H       1  UNL1        0.0000
     46 H           7.3120    5.6998    6.0350 H       1  UNL1        0.0000
     47 H           8.1241    4.7596    4.7781 H       1  UNL1        0.0000
     48 C           4.5584    7.7458    2.3657 C.3     1  UNL1        0.0000
     49 H           4.5877    8.5191    3.1287 H       1  UNL1        0.0000
     50 H           3.6188    7.7986    1.8229 H       1  UNL1        0.0000
     51 H           5.3803    7.9141    1.6725 H       1  UNL1        0.0000
     52 N           4.9422    3.3274    1.8114 N.2     1  UNL1        0.0000
     53 C           5.9364    3.6577    1.2666 C.1     1  UNL1        0.0000
     54 S           7.2268    3.9901    0.4226 S.2     1  UNL1        0.0000
@<TRIPOS>BOND
     1    31    30    1
     2    54    53    2
     3    32    30    1
     4     5     3    1
     5     4     3    1
     6    30    33    1
     7    30     2    1
     8     3     2    1
     9     3     6    1
    10    53    52    2
    11     7     6    1
    12    51    48    1
    13    52     1    1
    14    50    48    1
    15     2    26    1
    16     2     1    1
    17     6     8    1
    18     6     9    1
    19    27    26    1
    20    11     9    1
    21    48    39    1
    22    48    49    1
    23    38    39    1
    24    38     1    1
    25    26    28    1
    26    26    29    1
    27     9    10    1
    28     9    12    1
    29    39    40    2
    30     1    12    1
    31     1    43    1
    32     1    17    1
    33    12    13    1
    34    40    41    1
    35    40    42    1
    36    43    42    1
    37    42    44    1
    38    17    16    1
    39    47    44    1
    40    13    14    1
    41    13    15    1
    42    44    45    1
    43    44    46    1
    44    16    15   ar
    45    16    18   ar
    46    15    24   ar
    47    19    18    1
    48    19    34    1
    49    18    20   ar
    50    35    34    1
    51    24    25    1
    52    24    22   ar
    53    34    37    1
    54    34    36    1
    55    20    22   ar
    56    20    21    1
    57    22    23    1
