@<TRIPOS>MOLECULE
CSD_code = GOBHIO | q = 1 | S = 0 | Stoichiometry = C15H26CoN4O(1+) | MND = 6
 47 50 0 0 0
SMALL
GASTEIGER

@<TRIPOS>ATOM
      1 CO         12.7161    4.7281    3.7277 Co.oh   1  UNL1        0.0000
      2 O          13.6036    5.4005    2.2746 O.2     1  UNL1        0.0000
      3 N          12.3091    3.0938    2.9463 N.3     1  UNL1        0.0000
      4 N          11.7015    4.0600    5.3221 N.4     1  UNL1        0.0000
      5 N          10.8877    5.7556    2.9101 N.4     1  UNL1        0.0000
      6 N          13.0057    6.5650    4.5419 N.4     1  UNL1        0.0000
      7 C          14.4141    4.0707    4.4390 C.3     1  UNL1        0.0000
      8 C          13.9237    4.7568    1.2171 C.2     1  UNL1        0.0000
      9 C          13.4758    3.4828    0.9049 C.2     1  UNL1        0.0000
     10 C          12.6634    2.7057    1.7423 C.3     1  UNL1        0.0000
     11 C          11.4757    2.2292    3.7646 C.3     1  UNL1        0.0000
     12 C          11.6940    2.5934    5.2288 C.3     1  UNL1        0.0000
     13 C          11.1687    7.1862    3.0828 C.3     1  UNL1        0.0000
     14 C          11.8012    7.4002    4.4559 C.3     1  UNL1        0.0000
     15 C          12.1981    1.3845    1.1957 C.3     1  UNL1        0.0000
     16 C          14.7889    5.4816    0.2565 C.ar    1  UNL1        0.0000
     17 C          15.7190    4.8142   -0.5375 C.ar    1  UNL1        0.0000
     18 C          16.5187    5.5221   -1.4154 C.ar    1  UNL1        0.0000
     19 C          16.4009    6.8990   -1.5160 C.ar    1  UNL1        0.0000
     20 C          15.4862    7.5719   -0.7227 C.ar    1  UNL1        0.0000
     21 C          14.6918    6.8688    0.1623 C.ar    1  UNL1        0.0000
     22 H          14.3991    4.0673    5.5277 H       1  UNL1        0.0000
     23 H          15.2142    4.7275    4.1064 H       1  UNL1        0.0000
     24 H          14.6421    3.0689    4.0874 H       1  UNL1        0.0000
     25 H          10.7367    4.3870    5.2752 H       1  UNL1        0.0000
     26 H          12.0543    4.3323    6.2378 H       1  UNL1        0.0000
     27 H          13.7466    3.0704   -0.0511 H       1  UNL1        0.0000
     28 H           9.9902    5.5311    3.3336 H       1  UNL1        0.0000
     29 H          10.8023    5.5430    1.9199 H       1  UNL1        0.0000
     30 H          13.7099    6.9573    3.9155 H       1  UNL1        0.0000
     31 H          13.3998    6.6191    5.4791 H       1  UNL1        0.0000
     32 H          10.4196    2.3720    3.4960 H       1  UNL1        0.0000
     33 H          11.7223    1.1742    3.6199 H       1  UNL1        0.0000
     34 H          12.6695    2.2257    5.5480 H       1  UNL1        0.0000
     35 H          10.9216    2.1415    5.8601 H       1  UNL1        0.0000
     36 H          10.2714    7.8064    2.9791 H       1  UNL1        0.0000
     37 H          11.8873    7.4841    2.3172 H       1  UNL1        0.0000
     38 H          12.0308    8.4624    4.5954 H       1  UNL1        0.0000
     39 H          11.1002    7.0975    5.2387 H       1  UNL1        0.0000
     40 H          12.6572    0.5625    1.7442 H       1  UNL1        0.0000
     41 H          11.1170    1.2864    1.2770 H       1  UNL1        0.0000
     42 H          12.4769    1.2885    0.1515 H       1  UNL1        0.0000
     43 H          15.8368    3.7454   -0.4489 H       1  UNL1        0.0000
     44 H          17.2401    4.9973   -2.0230 H       1  UNL1        0.0000
     45 H          17.0238    7.4464   -2.2065 H       1  UNL1        0.0000
     46 H          15.3939    8.6453   -0.7938 H       1  UNL1        0.0000
     47 H          13.9754    7.3893    0.7812 H       1  UNL1        0.0000
@<TRIPOS>BOND
     1    45    19    1
     2    44    18    1
     3    19    18   ar
     4    19    20   ar
     5    18    17   ar
     6    46    20    1
     7    20    21   ar
     8    17    43    1
     9    17    16   ar
    10    27     9    1
    11    42    15    1
    12    21    16   ar
    13    21    47    1
    14    16     8    1
    15     9     8    2
    16     9    10    1
    17    15    41    1
    18    15    10    1
    19    15    40    1
    20     8     2    1
    21    10     3    1
    22    29     5    1
    23     2     1    1
    24    37    13    1
    25     5    13    1
    26     5    28    1
    27     5     1    1
    28     3     1    1
    29     3    11    1
    30    36    13    1
    31    13    14    1
    32    32    11    1
    33    33    11    1
    34     1     7    1
    35     1     6    1
    36     1     4    1
    37    11    12    1
    38    30     6    1
    39    24     7    1
    40    23     7    1
    41     7    22    1
    42    14     6    1
    43    14    38    1
    44    14    39    1
    45     6    31    1
    46    12     4    1
    47    12    34    1
    48    12    35    1
    49    25     4    1
    50     4    26    1
