@<TRIPOS>MOLECULE
CSD_code = GOFGAJ | q = 0 | S = 0 | Stoichiometry = C22H15CoN2S2 | MND = 8
 42 44 0 0 0
SMALL
GASTEIGER

@<TRIPOS>ATOM
      1 CO         -3.3425    3.6042    4.3500 Co.oh   1  UNL1        0.0000
      2 S          -3.4589    1.7458    5.5198 S.3     1  UNL1        0.0000
      3 S          -1.4320    4.1593    5.3949 S.3     1  UNL1        0.0000
      4 N          -0.2424    1.1259    3.7755 N.1     1  UNL1        0.0000
      5 N          -4.1557    0.7093    2.0555 N.1     1  UNL1        0.0000
      6 C          -2.0565    1.8075    6.5887 C.2     1  UNL1        0.0000
      7 C          -1.1690    2.8306    6.4556 C.2     1  UNL1        0.0000
      8 C          -2.0009    0.7310    7.5725 C.ar    1  UNL1        0.0000
      9 C          -2.3912   -0.5601    7.2183 C.ar    1  UNL1        0.0000
     10 C          -2.3435   -1.5862    8.1424 C.ar    1  UNL1        0.0000
     11 C          -1.9094   -1.3396    9.4337 C.ar    1  UNL1        0.0000
     12 C          -1.5323   -0.0568    9.7988 C.ar    1  UNL1        0.0000
     13 C          -1.5819    0.9737    8.8816 C.ar    1  UNL1        0.0000
     14 C           0.1102    2.8622    7.1767 C.ar    1  UNL1        0.0000
     15 C           0.9392    1.7426    7.1732 C.ar    1  UNL1        0.0000
     16 C           2.1529    1.7817    7.8317 C.ar    1  UNL1        0.0000
     17 C           2.5504    2.9300    8.4978 C.ar    1  UNL1        0.0000
     18 C           1.7358    4.0499    8.4903 C.ar    1  UNL1        0.0000
     19 C           0.5240    4.0215    7.8261 C.ar    1  UNL1        0.0000
     20 C          -2.7080    1.8020    3.8642 C.3     1  UNL1        0.0000
     21 C          -1.3456    1.4420    3.8044 C.1     1  UNL1        0.0000
     22 C          -3.5096    1.2093    2.8631 C.1     1  UNL1        0.0000
     23 C          -5.1668    4.6296    4.6338 C.2     1  UNL1        0.0000
     24 C          -4.1045    5.5353    4.4566 C.2     1  UNL1        0.0000
     25 C          -3.5251    5.2942    3.1732 C.3     1  UNL1        0.0000
     26 C          -4.2533    4.2513    2.5583 C.2     1  UNL1        0.0000
     27 C          -5.2430    3.8153    3.4722 C.2     1  UNL1        0.0000
     28 H          -2.7160   -0.7628    6.2071 H       1  UNL1        0.0000
     29 H          -2.6422   -2.5820    7.8507 H       1  UNL1        0.0000
     30 H          -1.8688   -2.1423   10.1544 H       1  UNL1        0.0000
     31 H          -1.2042    0.1436   10.8079 H       1  UNL1        0.0000
     32 H          -1.3044    1.9745    9.1752 H       1  UNL1        0.0000
     33 H           0.6363    0.8572    6.6354 H       1  UNL1        0.0000
     34 H           2.7936    0.9129    7.8208 H       1  UNL1        0.0000
     35 H           3.4983    2.9547    9.0146 H       1  UNL1        0.0000
     36 H           2.0462    4.9501    8.9998 H       1  UNL1        0.0000
     37 H          -0.1150    4.8921    7.8136 H       1  UNL1        0.0000
     38 H          -5.8562    4.6127    5.4622 H       1  UNL1        0.0000
     39 H          -3.8359    6.3407    5.1210 H       1  UNL1        0.0000
     40 H          -2.7612    5.8972    2.7082 H       1  UNL1        0.0000
     41 H          -4.1300    3.8958    1.5482 H       1  UNL1        0.0000
     42 H          -6.0030    3.0785    3.2656 H       1  UNL1        0.0000
@<TRIPOS>BOND
     1    41    26    1
     2     5    22    3
     3    26    25    1
     4    26    27    2
     5    40    25    1
     6    22    20    1
     7    25     1    1
     8    25    24    1
     9    42    27    1
    10    27    23    1
    11     4    21    3
    12    21    20    1
    13    20     1    1
    14    20     2    1
    15    24    23    2
    16    24    39    1
    17    23    38    1
    18     3     7    1
    19     2     6    1
    20    28     9    1
    21     7     6    2
    22     7    14    1
    23     6     8    1
    24    33    15    1
    25    15    14   ar
    26    15    16   ar
    27    14    19   ar
    28     9     8   ar
    29     9    10   ar
    30     8    13   ar
    31    37    19    1
    32    34    16    1
    33    19    18   ar
    34    16    17   ar
    35    29    10    1
    36    10    11   ar
    37    18    17   ar
    38    18    36    1
    39    17    35    1
    40    13    32    1
    41    13    12   ar
    42    11    12   ar
    43    11    30    1
    44    12    31    1
