@<TRIPOS>MOLECULE
CSD_code = HELPUJ | q = 0 | S = 0 | Stoichiometry = C10H15CoN6O4S2 | MND = 6
 38 41 0 0 0
SMALL
GASTEIGER

@<TRIPOS>ATOM
      1 CO          0.4608    2.1595    5.4455 Co.oh   1  UNL1        0.0000
      2 S           0.0252    1.9333    3.1317 S.3     1  UNL1        0.0000
      3 S           0.0928   -0.0737    5.8138 S.3     1  UNL1        0.0000
      4 O           1.1256    2.3159    7.1944 O.3     1  UNL1        0.0000
      5 O           3.0616    2.4327    8.2885 O.2     1  UNL1        0.0000
      6 O           0.4926    4.0329    5.1749 O.3     1  UNL1        0.0000
      7 O          -0.8036    5.8165    5.4467 O.2     1  UNL1        0.0000
      8 N           2.6131    1.9586    3.6527 N.3     1  UNL1        0.0000
      9 N           2.2541    2.0492    4.9649 N.3     1  UNL1        0.0000
     10 N           2.0096    1.9137    1.4217 N.3     1  UNL1        0.0000
     11 N          -2.0254    1.4342    6.4519 N.2     1  UNL1        0.0000
     12 N          -1.2536    2.4327    6.0229 N.pl3   1  UNL1        0.0000
     13 N          -2.2284   -0.8127    6.8120 N.pl3   1  UNL1        0.0000
     14 C           1.6444    1.9492    2.7112 C.3     1  UNL1        0.0000
     15 C           3.0948    2.2105    5.9156 C.3     1  UNL1        0.0000
     16 C           2.3984    2.3339    7.2806 C.2     1  UNL1        0.0000
     17 C           4.5801    2.2458    5.8230 C.3     1  UNL1        0.0000
     18 C           5.1428    0.8234    5.7088 C.3     1  UNL1        0.0000
     19 C          -1.5008    0.2435    6.4133 C.2     1  UNL1        0.0000
     20 C          -1.6302    3.6639    6.0737 C.3     1  UNL1        0.0000
     21 C          -0.5941    4.6260    5.5379 C.2     1  UNL1        0.0000
     22 C          -2.9651    4.1302    6.5374 C.3     1  UNL1        0.0000
     23 C          -3.8812    4.3736    5.3341 C.3     1  UNL1        0.0000
     24 H           3.5944    2.0604    3.4045 H       1  UNL1        0.0000
     25 H           1.2815    1.9168    0.7282 H       1  UNL1        0.0000
     26 H           2.9694    1.9573    1.1245 H       1  UNL1        0.0000
     27 H           4.9442    2.6960    6.7486 H       1  UNL1        0.0000
     28 H           4.9113    2.8596    4.9791 H       1  UNL1        0.0000
     29 H           6.2281    0.8583    5.6628 H       1  UNL1        0.0000
     30 H           4.7706    0.3116    4.8225 H       1  UNL1        0.0000
     31 H           4.8521    0.2469    6.5825 H       1  UNL1        0.0000
     32 H          -1.7718   -1.7022    6.9099 H       1  UNL1        0.0000
     33 H          -3.1015   -0.6471    7.2822 H       1  UNL1        0.0000
     34 H          -2.8261    5.0706    7.0732 H       1  UNL1        0.0000
     35 H          -3.3986    3.3778    7.1977 H       1  UNL1        0.0000
     36 H          -3.4406    5.1237    4.6828 H       1  UNL1        0.0000
     37 H          -4.8507    4.7289    5.6735 H       1  UNL1        0.0000
     38 H          -4.0215    3.4535    4.7711 H       1  UNL1        0.0000
@<TRIPOS>BOND
     1    25    10    1
     2    26    10    1
     3    10    14    1
     4    14     2    1
     5    14     8    1
     6     2     1    1
     7    24     8    1
     8     8     9    1
     9    36    23    1
    10    38    23    1
    11    30    18    1
    12     9     1    1
    13     9    15    1
    14    28    17    1
    15     6     1    1
    16     6    21    1
    17    23    37    1
    18    23    22    1
    19     1     3    1
    20     1    12    1
    21     1     4    1
    22     7    21    2
    23    21    20    1
    24    29    18    1
    25    18    17    1
    26    18    31    1
    27     3    19    1
    28    17    15    1
    29    17    27    1
    30    15    16    1
    31    12    20    1
    32    12    11    1
    33    20    22    1
    34    19    11    2
    35    19    13    1
    36    22    34    1
    37    22    35    1
    38    13    32    1
    39    13    33    1
    40     4    16    1
    41    16     5    2
