@<TRIPOS>MOLECULE
CSD_code = HIWDAT | q = 0 | S = 0 | Stoichiometry = C23H52CoNOP2Si2 | MND = 4
 82 83 0 0 0
SMALL
GASTEIGER

@<TRIPOS>ATOM
      1 CO         14.8747    2.0757   18.9810 Co.oh   1  UNL1        0.0000
      2 P          13.5426    3.7157   18.2281 P.3     1  UNL1        0.0000
      3 P          16.1222    0.4350   19.8663 P.3     1  UNL1        0.0000
      4 SI         12.4996    3.0113   20.9673 Si      1  UNL1        0.0000
      5 SI         14.9423    1.9215   22.2045 Si      1  UNL1        0.0000
      6 O          16.0515    1.7169   16.3863 O.3     1  UNL1        0.0000
      7 N          14.0726    2.3435   20.7830 N.3     1  UNL1        0.0000
      8 C          11.1220    1.6936   21.1724 C.3     1  UNL1        0.0000
      9 H          11.2826    1.1145   22.0745 H       1  UNL1        0.0000
     10 H          11.0868    0.9983   20.3390 H       1  UNL1        0.0000
     11 H          10.1447    2.1600   21.2550 H       1  UNL1        0.0000
     12 C          12.2566    4.2498   22.4002 C.3     1  UNL1        0.0000
     13 H          12.2182    3.7123   23.3400 H       1  UNL1        0.0000
     14 H          11.3243    4.7972   22.3009 H       1  UNL1        0.0000
     15 H          13.0621    4.9714   22.4725 H       1  UNL1        0.0000
     16 C          12.1020    3.9092   19.3203 C.3     1  UNL1        0.0000
     17 H          11.2584    3.3993   18.8638 H       1  UNL1        0.0000
     18 H          11.8391    4.9574   19.4393 H       1  UNL1        0.0000
     19 C          14.4736    5.3529   18.3885 C.3     1  UNL1        0.0000
     20 C          15.8481    5.1742   17.7428 C.3     1  UNL1        0.0000
     21 H          16.4549    6.0667   17.8950 H       1  UNL1        0.0000
     22 H          15.7758    4.9907   16.6749 H       1  UNL1        0.0000
     23 H          16.3557    4.3261   18.2072 H       1  UNL1        0.0000
     24 C          13.7666    6.5752   17.8097 C.3     1  UNL1        0.0000
     25 H          14.3140    7.4745   18.0935 H       1  UNL1        0.0000
     26 H          12.7545    6.6675   18.1988 H       1  UNL1        0.0000
     27 H          13.7270    6.5425   16.7241 H       1  UNL1        0.0000
     28 C          14.6886    5.5583   19.8885 C.3     1  UNL1        0.0000
     29 H          15.4232    6.3454   20.0573 H       1  UNL1        0.0000
     30 H          15.0522    4.6367   20.3419 H       1  UNL1        0.0000
     31 H          13.7653    5.8442   20.3837 H       1  UNL1        0.0000
     32 C          12.7163    3.5801   16.5164 C.3     1  UNL1        0.0000
     33 C          12.2877    2.1102   16.4467 C.3     1  UNL1        0.0000
     34 H          11.7119    1.9204   15.5415 H       1  UNL1        0.0000
     35 H          11.6743    1.8405   17.3058 H       1  UNL1        0.0000
     36 H          13.1630    1.4626   16.4403 H       1  UNL1        0.0000
     37 C          11.4815    4.4672   16.3414 C.3     1  UNL1        0.0000
     38 H          11.0761    4.3145   15.3409 H       1  UNL1        0.0000
     39 H          11.7226    5.5201   16.4443 H       1  UNL1        0.0000
     40 H          10.6978    4.2215   17.0521 H       1  UNL1        0.0000
     41 C          13.6799    3.8638   15.3648 C.3     1  UNL1        0.0000
     42 H          13.2141    3.5712   14.4234 H       1  UNL1        0.0000
     43 H          14.6001    3.2991   15.4685 H       1  UNL1        0.0000
     44 H          13.9206    4.9217   15.2980 H       1  UNL1        0.0000
     45 C          13.9367    1.1418   23.6273 C.3     1  UNL1        0.0000
     46 H          13.2719    0.3554   23.2890 H       1  UNL1        0.0000
     47 H          13.3264    1.9018   24.0997 H       1  UNL1        0.0000
     48 H          14.5862    0.7252   24.3910 H       1  UNL1        0.0000
     49 C          15.9077    3.3876   22.9761 C.3     1  UNL1        0.0000
     50 H          16.5906    3.8489   22.2687 H       1  UNL1        0.0000
     51 H          16.4894    3.0652   23.8347 H       1  UNL1        0.0000
     52 H          15.2228    4.1552   23.3176 H       1  UNL1        0.0000
     53 C          16.2802    0.6588   21.6637 C.3     1  UNL1        0.0000
     54 H          17.2516    1.0992   21.8696 H       1  UNL1        0.0000
     55 H          16.2242   -0.2948   22.1827 H       1  UNL1        0.0000
     56 C          15.1646   -1.1842   19.6790 C.3     1  UNL1        0.0000
     57 C          13.9075   -1.0224   20.5346 C.3     1  UNL1        0.0000
     58 H          13.1849   -1.8004   20.2890 H       1  UNL1        0.0000
     59 H          13.4526   -0.0503   20.3477 H       1  UNL1        0.0000
     60 H          14.1379   -1.0960   21.5935 H       1  UNL1        0.0000
     61 C          14.7220   -1.2943   18.2195 C.3     1  UNL1        0.0000
     62 H          14.0892   -2.1708   18.0815 H       1  UNL1        0.0000
     63 H          15.5679   -1.3758   17.5431 H       1  UNL1        0.0000
     64 H          14.1475   -0.4050   17.9514 H       1  UNL1        0.0000
     65 C          15.9071   -2.4460   20.1090 C.3     1  UNL1        0.0000
     66 H          15.2145   -3.2883   20.1072 H       1  UNL1        0.0000
     67 H          16.3045   -2.3465   21.1172 H       1  UNL1        0.0000
     68 H          16.7205   -2.6870   19.4297 H       1  UNL1        0.0000
     69 C          17.9397    0.2034   19.3435 C.3     1  UNL1        0.0000
     70 C          18.4713    1.6393   19.2731 C.3     1  UNL1        0.0000
     71 H          19.5403    1.6434   19.0630 H       1  UNL1        0.0000
     72 H          18.3052    2.1643   20.2131 H       1  UNL1        0.0000
     73 H          17.9631    2.1916   18.4843 H       1  UNL1        0.0000
     74 C          18.0852   -0.4411   17.9657 C.3     1  UNL1        0.0000
     75 H          19.1198   -0.3533   17.6328 H       1  UNL1        0.0000
     76 H          17.4577    0.0491   17.2293 H       1  UNL1        0.0000
     77 H          17.8370   -1.4991   17.9926 H       1  UNL1        0.0000
     78 C          18.7867   -0.5923   20.3393 C.3     1  UNL1        0.0000
     79 H          19.8089   -0.6514   19.9648 H       1  UNL1        0.0000
     80 H          18.4197   -1.6060   20.4620 H       1  UNL1        0.0000
     81 H          18.8236   -0.1182   21.3157 H       1  UNL1        0.0000
     82 C          15.5741    1.8585   17.4353 C.3     1  UNL1        0.0000
@<TRIPOS>BOND
     1    42    41    1
     2    44    41    1
     3    38    37    1
     4    41    43    1
     5    41    32    1
     6    34    33    1
     7    37    39    1
     8    37    32    1
     9    37    40    1
    10     6    82    1
    11    36    33    1
    12    33    32    1
    13    33    35    1
    14    32     2    1
    15    22    20    1
    16    27    24    1
    17    76    74    1
    18    82     1    1
    19    63    61    1
    20    75    74    1
    21    20    21    1
    22    20    23    1
    23    20    19    1
    24    24    25    1
    25    24    26    1
    26    24    19    1
    27    64    61    1
    28    74    77    1
    29    74    69    1
    30    62    61    1
    31    61    56    1
    32     2    19    1
    33     2     1    1
    34     2    16    1
    35    19    28    1
    36    73    70    1
    37    17    16    1
    38     1     3    1
    39     1     7    1
    40    71    70    1
    41    70    69    1
    42    70    72    1
    43    16    18    1
    44    16     4    1
    45    69     3    1
    46    69    78    1
    47    68    65    1
    48    56     3    1
    49    56    65    1
    50    56    57    1
    51     3    53    1
    52    28    29    1
    53    28    30    1
    54    28    31    1
    55    79    78    1
    56    66    65    1
    57    65    67    1
    58    58    57    1
    59    10     8    1
    60    78    80    1
    61    78    81    1
    62    59    57    1
    63    57    60    1
    64     7     4    1
    65     7     5    1
    66     4     8    1
    67     4    12    1
    68     8    11    1
    69     8     9    1
    70    53    54    1
    71    53    55    1
    72    53     5    1
    73     5    49    1
    74     5    45    1
    75    50    49    1
    76    14    12    1
    77    12    15    1
    78    12    13    1
    79    49    52    1
    80    49    51    1
    81    46    45    1
    82    45    47    1
    83    45    48    1
