@<TRIPOS>MOLECULE
CSD_code = HIZYOF | q = 0 | S = 0 | Stoichiometry = C28H57CoN2P2Si2 | MND = 3
 92 93 0 0 0
SMALL
GASTEIGER

@<TRIPOS>ATOM
      1 CO          3.9638    4.3095   14.4605 Co.oh   1  UNL1        0.0000
      2 P           1.0467    5.5879   13.7192 P.3     1  UNL1        0.0000
      3 P           5.8808    3.3277   14.0484 P.3     1  UNL1        0.0000
      4 SI          1.3630    2.6279   14.6562 Si      1  UNL1        0.0000
      5 SI          3.7355    1.2561   13.3740 Si      1  UNL1        0.0000
      6 N           2.9268    2.6469   13.9711 N.3     1  UNL1        0.0000
      7 C           0.3067    1.1150   14.1702 C.3     1  UNL1        0.0000
      8 H           0.6212    0.2508   14.7386 H       1  UNL1        0.0000
      9 H           0.4160    0.8727   13.1198 H       1  UNL1        0.0000
     10 H          -0.7481    1.2731   14.3704 H       1  UNL1        0.0000
     11 C           1.3459    2.7342   16.5739 C.3     1  UNL1        0.0000
     12 H           2.0549    2.0316   16.9987 H       1  UNL1        0.0000
     13 H           0.3667    2.5019   16.9840 H       1  UNL1        0.0000
     14 H           1.6216    3.7267   16.9162 H       1  UNL1        0.0000
     15 C           0.1707    4.0781   14.1286 C.3     1  UNL1        0.0000
     16 H          -0.4940    3.8019   13.3140 H       1  UNL1        0.0000
     17 H          -0.4489    4.2897   14.9987 H       1  UNL1        0.0000
     18 C           1.1650    5.6084   11.8130 C.3     1  UNL1        0.0000
     19 C           2.2905    6.5369   11.3690 C.3     1  UNL1        0.0000
     20 H           2.4119    6.4792   10.2873 H       1  UNL1        0.0000
     21 H           3.2271    6.2270   11.8296 H       1  UNL1        0.0000
     22 H           2.0866    7.5750   11.6245 H       1  UNL1        0.0000
     23 C           1.5502    4.1785   11.4341 C.3     1  UNL1        0.0000
     24 H           1.9651    4.1593   10.4274 H       1  UNL1        0.0000
     25 H           0.6924    3.5122   11.4545 H       1  UNL1        0.0000
     26 H           2.2938    3.7876   12.1295 H       1  UNL1        0.0000
     27 C          -0.1404    5.9864   11.1208 C.3     1  UNL1        0.0000
     28 H          -0.0466    5.7891   10.0528 H       1  UNL1        0.0000
     29 H          -0.3749    7.0417   11.2422 H       1  UNL1        0.0000
     30 H          -0.9707    5.3933   11.4983 H       1  UNL1        0.0000
     31 C           0.0205    7.0318   14.4164 C.3     1  UNL1        0.0000
     32 C          -1.4712    6.8565   14.1366 C.3     1  UNL1        0.0000
     33 H          -2.0311    7.6056   14.6969 H       1  UNL1        0.0000
     34 H          -1.8249    5.8766   14.4467 H       1  UNL1        0.0000
     35 H          -1.7013    6.9901   13.0842 H       1  UNL1        0.0000
     36 C           0.4770    8.3886   13.8869 C.3     1  UNL1        0.0000
     37 H          -0.1101    9.1775   14.3581 H       1  UNL1        0.0000
     38 H           0.3371    8.4686   12.8114 H       1  UNL1        0.0000
     39 H           1.5225    8.5661   14.1248 H       1  UNL1        0.0000
     40 C           0.2616    6.9826   15.9262 C.3     1  UNL1        0.0000
     41 H          -0.3569    7.7254   16.4290 H       1  UNL1        0.0000
     42 H           1.3036    7.1938   16.1584 H       1  UNL1        0.0000
     43 H           0.0162    6.0022   16.3307 H       1  UNL1        0.0000
     44 C           3.3161    0.8424   11.5485 C.3     1  UNL1        0.0000
     45 H           2.2899    0.4987   11.4838 H       1  UNL1        0.0000
     46 H           3.9488    0.0459   11.1687 H       1  UNL1        0.0000
     47 H           3.4151    1.6938   10.8857 H       1  UNL1        0.0000
     48 C           3.4446   -0.3643   14.3507 C.3     1  UNL1        0.0000
     49 H           2.5179   -0.8321   14.0437 H       1  UNL1        0.0000
     50 H           3.3786   -0.1746   15.4164 H       1  UNL1        0.0000
     51 H           4.2404   -1.0847   14.1882 H       1  UNL1        0.0000
     52 C           5.6172    1.5863   13.5600 C.3     1  UNL1        0.0000
     53 H           5.9702    0.9549   14.3700 H       1  UNL1        0.0000
     54 H           6.1921    1.3345   12.6729 H       1  UNL1        0.0000
     55 C           6.6040    4.0976   12.4730 C.3     1  UNL1        0.0000
     56 C           6.6902    5.6114   12.6681 C.3     1  UNL1        0.0000
     57 H           6.8749    6.1054   11.7138 H       1  UNL1        0.0000
     58 H           7.4875    5.8909   13.3494 H       1  UNL1        0.0000
     59 H           5.7497    5.9837   13.0739 H       1  UNL1        0.0000
     60 C           5.5342    3.8278   11.4124 C.3     1  UNL1        0.0000
     61 H           5.6982    4.4524   10.5344 H       1  UNL1        0.0000
     62 H           4.5521    4.0536   11.8311 H       1  UNL1        0.0000
     63 H           5.5401    2.7886   11.0992 H       1  UNL1        0.0000
     64 C           7.9484    3.5545   12.0009 C.3     1  UNL1        0.0000
     65 H           8.1539    3.9206   10.9945 H       1  UNL1        0.0000
     66 H           7.9493    2.4673   11.9673 H       1  UNL1        0.0000
     67 H           8.7583    3.8878   12.6450 H       1  UNL1        0.0000
     68 C           7.2369    3.1529   15.3707 C.3     1  UNL1        0.0000
     69 C           8.3176    2.1064   15.0997 C.3     1  UNL1        0.0000
     70 H           9.0141    2.0938   15.9387 H       1  UNL1        0.0000
     71 H           8.8823    2.3316   14.2011 H       1  UNL1        0.0000
     72 H           7.9027    1.1073   15.0029 H       1  UNL1        0.0000
     73 C           6.4455    2.7456   16.6175 C.3     1  UNL1        0.0000
     74 H           7.1111    2.6040   17.4689 H       1  UNL1        0.0000
     75 H           5.9021    1.8180   16.4456 H       1  UNL1        0.0000
     76 H           5.7192    3.5168   16.8641 H       1  UNL1        0.0000
     77 C           7.9075    4.5008   15.6288 C.3     1  UNL1        0.0000
     78 H           8.4296    4.4822   16.5859 H       1  UNL1        0.0000
     79 H           7.1661    5.2955   15.6574 H       1  UNL1        0.0000
     80 H           8.6398    4.7279   14.8575 H       1  UNL1        0.0000
     81 N           2.4060    5.4774   14.5392 N.pl3   1  UNL1        0.0000
     82 C           3.4746    6.2671   14.8863 C.ar    1  UNL1        0.0000
     83 C           3.9278    7.4513   14.2741 C.ar    1  UNL1        0.0000
     84 H           3.4131    7.8349   13.4071 H       1  UNL1        0.0000
     85 C           5.0071    8.1404   14.7812 C.ar    1  UNL1        0.0000
     86 H           5.3287    9.0501   14.2938 H       1  UNL1        0.0000
     87 C           5.6775    7.6923   15.9147 C.ar    1  UNL1        0.0000
     88 H           6.5118    8.2539   16.3070 H       1  UNL1        0.0000
     89 C           5.2485    6.5408   16.5452 C.ar    1  UNL1        0.0000
     90 H           5.7290    6.2160   17.4584 H       1  UNL1        0.0000
     91 C           4.1758    5.8116   16.0431 C.ar    1  UNL1        0.0000
     92 H           3.7137    5.0396   16.6569 H       1  UNL1        0.0000
@<TRIPOS>BOND
     1    28    27    1
     2    20    19    1
     3    24    23    1
     4    61    60    1
     5    47    44    1
     6    65    64    1
     7    63    60    1
     8    27    29    1
     9    27    30    1
    10    27    18    1
    11    46    44    1
    12    19    22    1
    13    19    18    1
    14    19    21    1
    15    60    62    1
    16    60    55    1
    17    23    25    1
    18    23    18    1
    19    23    26    1
    20    45    44    1
    21    44     5    1
    22    57    56    1
    23    18     2    1
    24    66    64    1
    25    64    55    1
    26    64    67    1
    27    55    56    1
    28    55     3    1
    29    56    59    1
    30    56    58    1
    31    54    52    1
    32    38    36    1
    33    35    32    1
    34     9     7    1
    35    16    15    1
    36     5    52    1
    37     5     6    1
    38     5    48    1
    39    84    83    1
    40    52     3    1
    41    52    53    1
    42     2    15    1
    43     2    31    1
    44     2    81    1
    45    36    39    1
    46    36    37    1
    47    36    31    1
    48     6     1    1
    49     6     4    1
    50    49    48    1
    51     3    68    1
    52    15     4    1
    53    15    17    1
    54    32    31    1
    55    32    34    1
    56    32    33    1
    57     7    10    1
    58     7     4    1
    59     7     8    1
    60    51    48    1
    61    71    69    1
    62    83    85   ar
    63    83    82   ar
    64    86    85    1
    65    48    50    1
    66    31    40    1
    67     1    81    1
    68    81    82    1
    69     4    11    1
    70    85    87   ar
    71    80    77    1
    72    82    91   ar
    73    72    69    1
    74    69    68    1
    75    69    70    1
    76    68    77    1
    77    68    73    1
    78    77    79    1
    79    77    78    1
    80    87    88    1
    81    87    89   ar
    82    40    42    1
    83    40    43    1
    84    40    41    1
    85    91    89   ar
    86    91    92    1
    87    75    73    1
    88    89    90    1
    89    11    14    1
    90    11    13    1
    91    11    12    1
    92    73    76    1
    93    73    74    1
