@<TRIPOS>MOLECULE
CSD_code = HOSLOS | q = 1 | S = 0 | Stoichiometry = C17H22CoN4O2S(1+) | MND = 6
 47 52 0 0 0
SMALL
GASTEIGER

@<TRIPOS>ATOM
      1 CO          8.0466   10.0370    4.2108 Co.oh   1  UNL1        0.0000
      2 S           7.1200    9.3138    6.1276 S.3     1  UNL1        0.0000
      3 O           7.4152   11.7512    4.4853 O.3     1  UNL1        0.0000
      4 O           5.5601   12.9642    4.5380 O.2     1  UNL1        0.0000
      5 N           6.2147    9.7316    3.4935 N.4     1  UNL1        0.0000
      6 N           8.8237    8.2232    3.8297 N.4     1  UNL1        0.0000
      7 N           8.8965   10.5220    2.4315 N.pl3   1  UNL1        0.0000
      8 N           9.6883   10.3966    5.0230 N.pl3   1  UNL1        0.0000
      9 C           6.1370   11.9086    4.5012 C.2     1  UNL1        0.0000
     10 C           5.3987   10.5450    4.4293 C.3     1  UNL1        0.0000
     11 C           5.3944    9.8820    5.8174 C.3     1  UNL1        0.0000
     12 C           4.4745    8.6619    5.8393 C.3     1  UNL1        0.0000
     13 C           4.9859   10.8712    6.9017 C.3     1  UNL1        0.0000
     14 C           9.2676    8.1418    2.4266 C.3     1  UNL1        0.0000
     15 C           9.5415    9.5072    1.8517 C.3     1  UNL1        0.0000
     16 C          10.3654    9.6989    0.7526 C.2     1  UNL1        0.0000
     17 C          10.5150   10.9792    0.2424 C.2     1  UNL1        0.0000
     18 C           9.8369   12.0255    0.8499 C.2     1  UNL1        0.0000
     19 C           9.0421   11.7523    1.9489 C.2     1  UNL1        0.0000
     20 C           9.9085    8.0261    4.8070 C.3     1  UNL1        0.0000
     21 C          10.5057    9.3492    5.1799 C.3     1  UNL1        0.0000
     22 C          11.7773    9.4853    5.7133 C.2     1  UNL1        0.0000
     23 C          12.2088   10.7399    6.1130 C.2     1  UNL1        0.0000
     24 C          11.3475   11.8156    5.9617 C.2     1  UNL1        0.0000
     25 C          10.0978   11.6037    5.4082 C.2     1  UNL1        0.0000
     26 H           4.3722   10.6831    4.0686 H       1  UNL1        0.0000
     27 H           4.7461    7.9264    5.0829 H       1  UNL1        0.0000
     28 H           4.5393    8.1750    6.8089 H       1  UNL1        0.0000
     29 H           3.4431    8.9692    5.6784 H       1  UNL1        0.0000
     30 H           5.6998   11.6884    6.9732 H       1  UNL1        0.0000
     31 H           4.0076   11.2917    6.6787 H       1  UNL1        0.0000
     32 H           4.9433   10.3672    7.8643 H       1  UNL1        0.0000
     33 H           6.0678   10.0930    2.5483 H       1  UNL1        0.0000
     34 H           5.8561    8.7739    3.5055 H       1  UNL1        0.0000
     35 H           8.1499    7.4775    3.9954 H       1  UNL1        0.0000
     36 H          10.1556    7.5076    2.3274 H       1  UNL1        0.0000
     37 H           8.4719    7.6865    1.8264 H       1  UNL1        0.0000
     38 H          10.8738    8.8603    0.3039 H       1  UNL1        0.0000
     39 H          11.1487   11.1546   -0.6127 H       1  UNL1        0.0000
     40 H           9.9217   13.0346    0.4821 H       1  UNL1        0.0000
     41 H           8.4977   12.5300    2.4667 H       1  UNL1        0.0000
     42 H           9.4697    7.6061    5.7189 H       1  UNL1        0.0000
     43 H          10.6705    7.3313    4.4374 H       1  UNL1        0.0000
     44 H          12.4080    8.6178    5.8252 H       1  UNL1        0.0000
     45 H          13.1905   10.8713    6.5397 H       1  UNL1        0.0000
     46 H          11.6337   12.8072    6.2712 H       1  UNL1        0.0000
     47 H           9.3924   12.4121    5.2792 H       1  UNL1        0.0000
@<TRIPOS>BOND
     1    39    17    1
     2    17    16    2
     3    17    18    1
     4    38    16    1
     5    40    18    1
     6    16    15    1
     7    18    19    2
     8    37    14    1
     9    15    14    1
    10    15     7    1
    11    19     7    1
    12    19    41    1
    13    36    14    1
    14    14     6    1
    15     7     1    1
    16    33     5    1
    17     5    34    1
    18     5     1    1
    19     5    10    1
    20     6    35    1
    21     6     1    1
    22     6    20    1
    23    26    10    1
    24     1     3    1
    25     1     8    1
    26     1     2    1
    27    10     9    1
    28    10    11    1
    29    43    20    1
    30     3     9    1
    31     9     4    2
    32    20    21    1
    33    20    42    1
    34     8    21    1
    35     8    25    1
    36    27    12    1
    37    21    22    1
    38    47    25    1
    39    25    24    2
    40    29    12    1
    41    22    44    1
    42    22    23    2
    43    11    12    1
    44    11     2    1
    45    11    13    1
    46    12    28    1
    47    24    23    1
    48    24    46    1
    49    23    45    1
    50    31    13    1
    51    13    30    1
    52    13    32    1
