@<TRIPOS>MOLECULE
CSD_code = HOVHUX | q = -1 | S = 0 | Stoichiometry = C26H18CoN2O4(1-) | MND = 6
 51 58 0 0 0
SMALL
GASTEIGER

@<TRIPOS>ATOM
      1 CO          0.2778    7.8843    3.2642 Co.oh   1  UNL1        0.0000
      2 O           1.7787    7.4821    2.2265 O.3     1  UNL1        0.0000
      3 O          -1.2726    8.2651    4.2503 O.3     1  UNL1        0.0000
      4 O           0.4114    9.6924    2.7793 O.3     1  UNL1        0.0000
      5 O           0.1978    6.0955    3.7981 O.3     1  UNL1        0.0000
      6 N           1.2341    8.2266    4.8374 N.pl3   1  UNL1        0.0000
      7 C          -0.3656    5.1339    3.1673 C.ar    1  UNL1        0.0000
      8 C           2.5192    8.1256    4.9757 C.3     1  UNL1        0.0000
      9 H           2.9687    8.3450    5.9453 H       1  UNL1        0.0000
     10 C           3.4300    7.7417    3.9558 C.ar    1  UNL1        0.0000
     11 C           2.9949    7.4405    2.6254 C.ar    1  UNL1        0.0000
     12 C           3.9982    7.0715    1.6897 C.ar    1  UNL1        0.0000
     13 H           3.6702    6.8451    0.6854 H       1  UNL1        0.0000
     14 C           5.3214    6.9992    2.0322 C.ar    1  UNL1        0.0000
     15 H           6.0553    6.7116    1.2900 H       1  UNL1        0.0000
     16 C           5.7356    7.2936    3.3342 C.ar    1  UNL1        0.0000
     17 H           6.7824    7.2341    3.5983 H       1  UNL1        0.0000
     18 C           4.7978    7.6575    4.2664 C.ar    1  UNL1        0.0000
     19 H           5.1079    7.8882    5.2786 H       1  UNL1        0.0000
     20 C           0.3830    8.5999    5.8656 C.ar    1  UNL1        0.0000
     21 C           0.7266    8.9560    7.1670 C.ar    1  UNL1        0.0000
     22 H           1.7600    8.9691    7.4849 H       1  UNL1        0.0000
     23 C          -0.2565    9.3040    8.0731 C.ar    1  UNL1        0.0000
     24 H           0.0154    9.5820    9.0822 H       1  UNL1        0.0000
     25 C          -1.5941    9.2997    7.6897 C.ar    1  UNL1        0.0000
     26 H          -2.3549    9.5761    8.4087 H       1  UNL1        0.0000
     27 C          -1.9610    8.9524    6.4099 C.ar    1  UNL1        0.0000
     28 H          -2.9972    8.9498    6.1052 H       1  UNL1        0.0000
     29 C          -0.9824    8.5952    5.4630 C.ar    1  UNL1        0.0000
     30 C          -0.2528    9.9338    1.7002 C.ar    1  UNL1        0.0000
     31 C          -0.9305    8.8606    1.0559 C.ar    1  UNL1        0.0000
     32 N          -0.7558    7.6565    1.7197 N.pl3   1  UNL1        0.0000
     33 C          -1.2499    6.5329    1.3019 C.3     1  UNL1        0.0000
     34 H          -1.8377    6.5194    0.3829 H       1  UNL1        0.0000
     35 C          -1.0923    5.2748    1.9418 C.ar    1  UNL1        0.0000
     36 C          -0.2733    3.8253    3.7126 C.ar    1  UNL1        0.0000
     37 H           0.2760    3.7188    4.6370 H       1  UNL1        0.0000
     38 C          -0.8466    2.7416    3.1043 C.ar    1  UNL1        0.0000
     39 H          -0.7516    1.7599    3.5509 H       1  UNL1        0.0000
     40 C          -1.5555    2.8900    1.9089 C.ar    1  UNL1        0.0000
     41 H          -2.0066    2.0298    1.4338 H       1  UNL1        0.0000
     42 C          -1.6687    4.1378    1.3509 C.ar    1  UNL1        0.0000
     43 H          -2.2158    4.2642    0.4242 H       1  UNL1        0.0000
     44 C          -1.6636    9.0931   -0.1046 C.ar    1  UNL1        0.0000
     45 H          -2.1901    8.2887   -0.5996 H       1  UNL1        0.0000
     46 C          -1.7318   10.3655   -0.6383 C.ar    1  UNL1        0.0000
     47 H          -2.3048   10.5418   -1.5384 H       1  UNL1        0.0000
     48 C          -1.0670   11.4198   -0.0198 C.ar    1  UNL1        0.0000
     49 H          -1.1283   12.4123   -0.4479 H       1  UNL1        0.0000
     50 C          -0.3372   11.2179    1.1290 C.ar    1  UNL1        0.0000
     51 H           0.1782   12.0328    1.6159 H       1  UNL1        0.0000
@<TRIPOS>BOND
     1    47    46    1
     2    46    44   ar
     3    46    48   ar
     4    45    44    1
     5    49    48    1
     6    44    31   ar
     7    48    50   ar
     8    34    33    1
     9    43    42    1
    10    13    12    1
    11    31    30   ar
    12    31    32    1
    13    50    51    1
    14    50    30   ar
    15    15    14    1
    16    33    32    1
    17    33    35    1
    18    42    40   ar
    19    42    35   ar
    20    41    40    1
    21    12    14   ar
    22    12    11   ar
    23    30     4    1
    24    32     1    1
    25    40    38   ar
    26    35     7   ar
    27    14    16   ar
    28     2    11    1
    29     2     1    1
    30    11    10   ar
    31     4     1    1
    32    38    39    1
    33    38    36   ar
    34     7    36   ar
    35     7     5    1
    36     1     5    1
    37     1     3    1
    38     1     6    1
    39    16    17    1
    40    16    18   ar
    41    36    37    1
    42    10    18   ar
    43    10     8    1
    44     3    29    1
    45    18    19    1
    46     6     8    1
    47     6    20    1
    48     8     9    1
    49    29    20   ar
    50    29    27   ar
    51    20    21   ar
    52    28    27    1
    53    27    25   ar
    54    21    22    1
    55    21    23   ar
    56    25    23   ar
    57    25    26    1
    58    23    24    1
