@<TRIPOS>MOLECULE
CSD_code = HUJKON | q = 0 | S = 0 | Stoichiometry = C16H15CoS4 | MND = 8
 36 39 0 0 0
SMALL
GASTEIGER

@<TRIPOS>ATOM
      1 CO         -0.4505   -0.7574    6.3691 Co.oh   1  UNL1        0.0000
      2 S           1.3560    0.4941    6.0870 S.3     1  UNL1        0.0000
      3 S          -0.9011    0.2600    8.3446 S.2     1  UNL1        0.0000
      4 S           3.0388    2.0991    7.9434 S.3     1  UNL1        0.0000
      5 S           0.4529    2.1732   10.0501 S.3     1  UNL1        0.0000
      6 C           1.4894    1.3351    7.6482 C.3     1  UNL1        0.0000
      7 C           0.4799    1.2549    8.5462 C.2     1  UNL1        0.0000
      8 C           2.7770    3.7351    7.1041 C.3     1  UNL1        0.0000
      9 C           1.0121    3.8567    9.5154 C.3     1  UNL1        0.0000
     10 C           1.3297    4.0909    7.0162 C.ar    1  UNL1        0.0000
     11 C           0.5080    4.1634    8.1456 C.ar    1  UNL1        0.0000
     12 C          -0.8400    4.4682    7.9875 C.ar    1  UNL1        0.0000
     13 C          -1.3777    4.7073    6.7377 C.ar    1  UNL1        0.0000
     14 C          -0.5640    4.6416    5.6192 C.ar    1  UNL1        0.0000
     15 C           0.7759    4.3318    5.7631 C.ar    1  UNL1        0.0000
     16 C          -0.2417    0.9471    5.5053 C.3     1  UNL1        0.0000
     17 C          -2.0236   -2.0911    6.4138 C.3     1  UNL1        0.0000
     18 C          -0.8903   -2.7081    7.0305 C.2     1  UNL1        0.0000
     19 C           0.1312   -2.7868    6.0772 C.2     1  UNL1        0.0000
     20 C          -0.3524   -2.2096    4.8667 C.3     1  UNL1        0.0000
     21 C          -1.7001   -1.8266    5.0632 C.3     1  UNL1        0.0000
     22 H           3.3447    4.4509    7.6996 H       1  UNL1        0.0000
     23 H           3.2214    3.6633    6.1121 H       1  UNL1        0.0000
     24 H           0.5567    4.5099   10.2595 H       1  UNL1        0.0000
     25 H           2.0939    3.8998    9.6034 H       1  UNL1        0.0000
     26 H          -1.4711    4.5025    8.8635 H       1  UNL1        0.0000
     27 H          -2.4277    4.9352    6.6361 H       1  UNL1        0.0000
     28 H          -0.9724    4.8196    4.6358 H       1  UNL1        0.0000
     29 H           1.4079    4.2690    4.8886 H       1  UNL1        0.0000
     30 H          -0.2681    0.9417    4.4186 H       1  UNL1        0.0000
     31 H          -0.6094    1.8776    5.9279 H       1  UNL1        0.0000
     32 H          -2.9977   -1.9871    6.8655 H       1  UNL1        0.0000
     33 H          -0.8715   -3.1242    8.0249 H       1  UNL1        0.0000
     34 H           1.0876   -3.2681    6.2034 H       1  UNL1        0.0000
     35 H           0.1730   -2.2074    3.9242 H       1  UNL1        0.0000
     36 H          -2.3794   -1.4760    4.3039 H       1  UNL1        0.0000
@<TRIPOS>BOND
     1    35    20    1
     2    36    21    1
     3    30    16    1
     4    28    14    1
     5    20    21    1
     6    20    19    1
     7    20     1    1
     8    29    15    1
     9    21    17    1
    10    16    31    1
    11    16     2    1
    12    16     1    1
    13    14    15   ar
    14    14    13   ar
    15    15    10   ar
    16    19    34    1
    17    19    18    2
    18     2     6    1
    19    23     8    1
    20     1    17    1
    21    17    32    1
    22    17    18    1
    23    27    13    1
    24    13    12   ar
    25    10     8    1
    26    10    11   ar
    27    18    33    1
    28     8    22    1
    29     8     4    1
    30     6     4    1
    31     6     7    1
    32    12    11   ar
    33    12    26    1
    34    11     9    1
    35     3     7    2
    36     7     5    1
    37     9    25    1
    38     9     5    1
    39     9    24    1
