@<TRIPOS>MOLECULE
CSD_code = ICIDON | q = 1 | S = 0 | Stoichiometry = C33H43CoN5(1+) | MND = 4
 82 86 0 0 0
SMALL
GASTEIGER

@<TRIPOS>ATOM
      1 CO          0.9531    2.6076    3.3534 Co.oh   1  UNL1        0.0000
      2 N           0.9006    4.0100    4.4536 N.pl3   1  UNL1        0.0000
      3 C           1.0060    5.2477    3.9490 C.2     1  UNL1        0.0000
      4 C           0.9709    6.3622    4.7824 C.2     1  UNL1        0.0000
      5 H           1.0589    7.3561    4.3762 H       1  UNL1        0.0000
      6 C           0.8152    6.1621    6.1478 C.2     1  UNL1        0.0000
      7 H           0.7809    7.0090    6.8146 H       1  UNL1        0.0000
      8 C           0.7021    4.8753    6.6574 C.2     1  UNL1        0.0000
      9 H           0.5758    4.7096    7.7144 H       1  UNL1        0.0000
     10 C           0.7544    3.8035    5.7703 C.2     1  UNL1        0.0000
     11 C           1.1193    5.1948    2.4944 C.3     1  UNL1        0.0000
     12 N           1.1153    3.9880    2.0296 N.pl3   1  UNL1        0.0000
     13 C           1.2332    6.4365    1.6821 C.3     1  UNL1        0.0000
     14 H           2.1045    7.0059    2.0059 H       1  UNL1        0.0000
     15 H           0.3581    7.0699    1.8257 H       1  UNL1        0.0000
     16 H           1.3307    6.2016    0.6250 H       1  UNL1        0.0000
     17 C           0.6847    2.3737    6.0546 C.2     1  UNL1        0.0000
     18 N           0.7918    1.6375    4.9951 N.pl3   1  UNL1        0.0000
     19 C           0.5283    1.8685    7.4442 C.3     1  UNL1        0.0000
     20 H          -0.4688    2.1081    7.8145 H       1  UNL1        0.0000
     21 H           1.2495    2.3504    8.1026 H       1  UNL1        0.0000
     22 H           0.6654    0.7905    7.4830 H       1  UNL1        0.0000
     23 C           1.1019    3.7283    0.6399 C.ar    1  UNL1        0.0000
     24 C           2.2687    3.2589    0.0282 C.ar    1  UNL1        0.0000
     25 C           2.2327    2.9793   -1.3302 C.ar    1  UNL1        0.0000
     26 H           3.1244    2.6407   -1.8308 H       1  UNL1        0.0000
     27 C           1.0621    3.1258   -2.0478 C.ar    1  UNL1        0.0000
     28 H           1.0458    2.9019   -3.1028 H       1  UNL1        0.0000
     29 C          -0.0963    3.5456   -1.4180 C.ar    1  UNL1        0.0000
     30 H          -1.0032    3.6265   -1.9926 H       1  UNL1        0.0000
     31 C          -0.1030    3.8645   -0.0691 C.ar    1  UNL1        0.0000
     32 C           3.5381    3.0948    0.8323 C.3     1  UNL1        0.0000
     33 H           3.2644    3.0325    1.8993 H       1  UNL1        0.0000
     34 C           4.2844    1.8113    0.4713 C.3     1  UNL1        0.0000
     35 H           3.6113    0.9574    0.4985 H       1  UNL1        0.0000
     36 H           5.0891    1.6421    1.1823 H       1  UNL1        0.0000
     37 H           4.7254    1.8754   -0.5188 H       1  UNL1        0.0000
     38 C           4.4427    4.3151    0.6424 C.3     1  UNL1        0.0000
     39 H           5.3535    4.2024    1.2252 H       1  UNL1        0.0000
     40 H           3.9410    5.2273    0.9579 H       1  UNL1        0.0000
     41 H           4.7154    4.4198   -0.4048 H       1  UNL1        0.0000
     42 C          -1.3706    4.2695    0.6554 C.3     1  UNL1        0.0000
     43 H          -1.1348    5.0835    1.3502 H       1  UNL1        0.0000
     44 C          -2.4690    4.7766   -0.2776 C.3     1  UNL1        0.0000
     45 H          -3.2807    5.1973    0.3115 H       1  UNL1        0.0000
     46 H          -2.8783    3.9689   -0.8780 H       1  UNL1        0.0000
     47 H          -2.0895    5.5527   -0.9376 H       1  UNL1        0.0000
     48 C          -1.8931    3.0844    1.4760 C.3     1  UNL1        0.0000
     49 H          -2.8359    3.3431    1.9517 H       1  UNL1        0.0000
     50 H          -1.1800    2.8022    2.2669 H       1  UNL1        0.0000
     51 H          -2.0508    2.2209    0.8344 H       1  UNL1        0.0000
     52 C           0.7684    0.2244    5.0845 C.ar    1  UNL1        0.0000
     53 C          -0.4454   -0.4534    5.2506 C.ar    1  UNL1        0.0000
     54 C          -0.4152   -1.8392    5.3185 C.ar    1  UNL1        0.0000
     55 H          -1.3374   -2.3840    5.4393 H       1  UNL1        0.0000
     56 C           0.7773   -2.5314    5.2354 C.ar    1  UNL1        0.0000
     57 H           0.7814   -3.6075    5.3086 H       1  UNL1        0.0000
     58 C           1.9639   -1.8489    5.0416 C.ar    1  UNL1        0.0000
     59 H           2.8856   -2.4009    4.9635 H       1  UNL1        0.0000
     60 C           1.9805   -0.4660    4.9460 C.ar    1  UNL1        0.0000
     61 C          -1.7667    0.2807    5.2589 C.3     1  UNL1        0.0000
     62 H          -1.5837    1.3592    5.3206 H       1  UNL1        0.0000
     63 C          -2.4915    0.0098    3.9365 C.3     1  UNL1        0.0000
     64 H          -3.4199    0.5739    3.8941 H       1  UNL1        0.0000
     65 H          -2.7250   -1.0465    3.8374 H       1  UNL1        0.0000
     66 H          -1.8664    0.3024    3.0946 H       1  UNL1        0.0000
     67 C          -2.6400   -0.1195    6.4488 C.3     1  UNL1        0.0000
     68 H          -3.5211    0.5163    6.4915 H       1  UNL1        0.0000
     69 H          -2.0944   -0.0187    7.3846 H       1  UNL1        0.0000
     70 H          -2.9748   -1.1485    6.3595 H       1  UNL1        0.0000
     71 C           3.2726    0.2918    4.7394 C.3     1  UNL1        0.0000
     72 H           3.0288    1.2866    4.3253 H       1  UNL1        0.0000
     73 C           3.9810    0.4971    6.0811 C.3     1  UNL1        0.0000
     74 H           4.9138    1.0362    5.9354 H       1  UNL1        0.0000
     75 H           4.2069   -0.4644    6.5358 H       1  UNL1        0.0000
     76 H           3.3587    1.0638    6.7705 H       1  UNL1        0.0000
     77 C           4.1995   -0.4035    3.7438 C.3     1  UNL1        0.0000
     78 H           3.6616   -0.6570    2.8334 H       1  UNL1        0.0000
     79 H           4.6224   -1.3112    4.1639 H       1  UNL1        0.0000
     80 H           5.0237    0.2576    3.4878 H       1  UNL1        0.0000
     81 N           1.0972    1.3047    2.3479 N.3     1  UNL1        0.0000
     82 N           1.2388    0.4258    1.6789 N.3     1  UNL1        0.0000
@<TRIPOS>BOND
     1    28    27    1
     2    27    29   ar
     3    27    25   ar
     4    30    29    1
     5    26    25    1
     6    29    31   ar
     7    25    24   ar
     8    47    44    1
     9    46    44    1
    10    37    34    1
    11    41    38    1
    12    44    45    1
    13    44    42    1
    14    31    23   ar
    15    31    42    1
    16    24    23   ar
    17    24    32    1
    18    34    35    1
    19    34    32    1
    20    34    36    1
    21    16    13    1
    22    23    12    1
    23    38    32    1
    24    38    40    1
    25    38    39    1
    26    42    43    1
    27    42    48    1
    28    32    33    1
    29    51    48    1
    30    48    49    1
    31    48    50    1
    32    82    81    1
    33    13    15    1
    34    13    14    1
    35    13    11    1
    36    12    11    1
    37    12     1    1
    38    81     1    1
    39    11     3    1
    40    78    77    1
    41    66    63    1
    42     1     2    1
    43     1    18    1
    44    80    77    1
    45    77    79    1
    46    77    71    1
    47    65    63    1
    48    64    63    1
    49    63    61    1
    50     3     2    1
    51     3     4    2
    52    72    71    1
    53     5     4    1
    54     2    10    1
    55    71    60    1
    56    71    73    1
    57     4     6    1
    58    60    58   ar
    59    60    52   ar
    60    59    58    1
    61    18    52    1
    62    18    17    1
    63    58    56   ar
    64    52    53   ar
    65    56    57    1
    66    56    54   ar
    67    53    61    1
    68    53    54   ar
    69    61    62    1
    70    61    67    1
    71    54    55    1
    72    10    17    2
    73    10     8    1
    74    74    73    1
    75    17    19    1
    76    73    75    1
    77    73    76    1
    78     6     8    2
    79     6     7    1
    80    70    67    1
    81    67    68    1
    82    67    69    1
    83     8     9    1
    84    19    22    1
    85    19    20    1
    86    19    21    1
