@<TRIPOS>MOLECULE
CSD_code = IFAFON | q = 0 | S = 0 | Stoichiometry = C18H21CoN10O2 | MND = 6
 52 57 0 0 0
SMALL
GASTEIGER

@<TRIPOS>ATOM
      1 CO          1.6463    2.7009   12.2798 Co.oh   1  UNL1        0.0000
      2 O           0.1369    3.0266   11.2049 O.3     1  UNL1        0.0000
      3 O          -0.9768    3.9095    9.0076 O.3     1  UNL1        0.0000
      4 N           0.6617    3.2748   13.7977 N.3     1  UNL1        0.0000
      5 N           3.2524    2.2196   13.1296 N.ar    1  UNL1        0.0000
      6 N           3.7658    2.0605   14.3329 N.ar    1  UNL1        0.0000
      7 N           5.3169    1.5002   12.9552 N.ar    1  UNL1        0.0000
      8 N           2.6430    2.2368   10.6535 N.pl3   1  UNL1        0.0000
      9 N           2.2749    4.4297   12.0264 N.2     1  UNL1        0.0000
     10 N           4.9786    1.6354   14.2184 N.ar    1  UNL1        0.0000
     11 C           4.2404    1.8669   12.2714 C.ar    1  UNL1        0.0000
     12 C           3.9320    1.9209   10.8727 C.3     1  UNL1        0.0000
     13 C           2.2210    2.3597    9.3992 C.2     1  UNL1        0.0000
     14 H           1.1831    2.6382    9.2681 H       1  UNL1        0.0000
     15 C           3.0586    2.1557    8.3171 C.2     1  UNL1        0.0000
     16 H           2.6746    2.2708    7.3164 H       1  UNL1        0.0000
     17 C           4.3874    1.8161    8.5392 C.2     1  UNL1        0.0000
     18 H           5.0605    1.6591    7.7100 H       1  UNL1        0.0000
     19 C           4.8353    1.6945    9.8400 C.2     1  UNL1        0.0000
     20 H           5.8548    1.4450   10.0847 H       1  UNL1        0.0000
     21 C          -0.6153    4.0668   11.3212 C.ar    1  UNL1        0.0000
     22 C          -1.2643    4.5895   10.1600 C.ar    1  UNL1        0.0000
     23 C          -1.4290    4.4545    7.7939 C.3     1  UNL1        0.0000
     24 H          -1.0408    3.8025    7.0124 H       1  UNL1        0.0000
     25 H          -2.5231    4.4671    7.7406 H       1  UNL1        0.0000
     26 H          -1.0442    5.4681    7.6460 H       1  UNL1        0.0000
     27 C          -2.0737    5.6948   10.2589 C.ar    1  UNL1        0.0000
     28 H          -2.5414    6.1135    9.3819 H       1  UNL1        0.0000
     29 C          -2.2956    6.3115   11.4967 C.ar    1  UNL1        0.0000
     30 H          -2.9355    7.1789   11.5410 H       1  UNL1        0.0000
     31 C          -1.7045    5.8248   12.6288 C.ar    1  UNL1        0.0000
     32 H          -1.8655    6.3019   13.5842 H       1  UNL1        0.0000
     33 C          -0.8513    4.7078   12.5628 C.ar    1  UNL1        0.0000
     34 C          -0.2711    4.1623   13.7419 C.3     1  UNL1        0.0000
     35 H          -0.7058    4.5101   14.6822 H       1  UNL1        0.0000
     36 C           0.9269    2.6510   15.0730 C.3     1  UNL1        0.0000
     37 H           0.4807    3.2378   15.8850 H       1  UNL1        0.0000
     38 H           2.0071    2.5796   15.2285 H       1  UNL1        0.0000
     39 C           0.3143    1.2447   15.0749 C.3     1  UNL1        0.0000
     40 H           0.4191    0.8188   16.0733 H       1  UNL1        0.0000
     41 H          -0.7538    1.3177   14.8455 H       1  UNL1        0.0000
     42 C           0.9893    0.3031   14.0826 C.3     1  UNL1        0.0000
     43 H           2.0484    0.2149   14.3360 H       1  UNL1        0.0000
     44 H           0.5341   -0.6945   14.1781 H       1  UNL1        0.0000
     45 N           0.8788    0.7600   12.6894 N.4     1  UNL1        0.0000
     46 H          -0.1122    0.9210   12.4964 H       1  UNL1        0.0000
     47 C           1.3236   -0.2923   11.7761 C.3     1  UNL1        0.0000
     48 H           1.1383    0.0092   10.7474 H       1  UNL1        0.0000
     49 H           2.3915   -0.4691   11.9073 H       1  UNL1        0.0000
     50 H           0.7957   -1.2348   11.9676 H       1  UNL1        0.0000
     51 N           2.0999    5.1276   11.1018 N.2     1  UNL1        0.0000
     52 N           2.0198    5.9050   10.2793 N.2     1  UNL1        0.0000
@<TRIPOS>BOND
     1    24    23    1
     2    16    15    1
     3    26    23    1
     4    18    17    1
     5    25    23    1
     6    23     3    1
     7    15    17    1
     8    15    13    2
     9    17    19    2
    10     3    22    1
    11    14    13    1
    12    28    27    1
    13    13     8    1
    14    19    20    1
    15    19    12    1
    16    22    27   ar
    17    22    21   ar
    18    27    29   ar
    19    52    51    2
    20     8    12    1
    21     8     1    1
    22    48    47    1
    23    12    11    1
    24    51     9    2
    25     2    21    1
    26     2     1    1
    27    21    33   ar
    28    29    30    1
    29    29    31   ar
    30    47    49    1
    31    47    50    1
    32    47    45    1
    33     9     1    1
    34    11     7   ar
    35    11     5   ar
    36     1    45    1
    37     1     5    1
    38     1     4    1
    39    46    45    1
    40    33    31   ar
    41    33    34    1
    42    31    32    1
    43    45    42    1
    44     7    10   ar
    45     5     6   ar
    46    34     4    1
    47    34    35    1
    48     4    36    1
    49    42    44    1
    50    42    43    1
    51    42    39    1
    52    10     6   ar
    53    41    39    1
    54    36    39    1
    55    36    38    1
    56    36    37    1
    57    39    40    1
