@<TRIPOS>MOLECULE
CSD_code = ILENEU | q = 0 | S = 0 | Stoichiometry = C21H44CoNOP2 | MND = 4
 70 71 0 0 0
SMALL
GASTEIGER

@<TRIPOS>ATOM
      1 CO          2.3846    6.6518    4.1278 Co.oh   1  UNL1        0.0000
      2 P           0.4962    5.8867    4.9075 P.3     1  UNL1        0.0000
      3 O           3.0744    4.2132    2.7515 O.3     1  UNL1        0.0000
      4 N           1.9918    8.1819    5.0678 N.3     1  UNL1        0.0000
      5 C           0.7445    8.4457    5.7544 C.3     1  UNL1        0.0000
      6 H           0.0850    9.0866    5.1372 H       1  UNL1        0.0000
      7 H           0.9460    9.0294    6.6740 H       1  UNL1        0.0000
      8 C           0.0217    7.1605    6.1446 C.3     1  UNL1        0.0000
      9 H          -1.0576    7.3021    6.2283 H       1  UNL1        0.0000
     10 H           0.4071    6.8285    7.1096 H       1  UNL1        0.0000
     11 P           4.0951    7.7631    3.3572 P.3     1  UNL1        0.0000
     12 C           0.5229    4.3087    5.9592 C.3     1  UNL1        0.0000
     13 C           1.8576    4.3991    6.7073 C.3     1  UNL1        0.0000
     14 H           2.6775    4.5110    5.9959 H       1  UNL1        0.0000
     15 H           2.0272    3.4982    7.2958 H       1  UNL1        0.0000
     16 H           1.8797    5.2536    7.3808 H       1  UNL1        0.0000
     17 C          -0.6129    4.1769    6.9746 C.3     1  UNL1        0.0000
     18 H          -1.5756    4.0453    6.4915 H       1  UNL1        0.0000
     19 H          -0.6725    5.0391    7.6335 H       1  UNL1        0.0000
     20 H          -0.4299    3.2989    7.5945 H       1  UNL1        0.0000
     21 C           0.5536    3.0669    5.0696 C.3     1  UNL1        0.0000
     22 H          -0.4166    2.8779    4.6168 H       1  UNL1        0.0000
     23 H           0.8165    2.1928    5.6653 H       1  UNL1        0.0000
     24 H           1.2966    3.1743    4.2836 H       1  UNL1        0.0000
     25 C          -0.9514    5.8566    3.6856 C.3     1  UNL1        0.0000
     26 C          -0.5346    5.0354    2.4654 C.3     1  UNL1        0.0000
     27 H          -1.2918    5.1136    1.6855 H       1  UNL1        0.0000
     28 H          -0.4040    3.9851    2.7058 H       1  UNL1        0.0000
     29 H           0.4074    5.4156    2.0714 H       1  UNL1        0.0000
     30 C          -1.1150    7.3099    3.2329 C.3     1  UNL1        0.0000
     31 H          -0.1358    7.7315    2.9986 H       1  UNL1        0.0000
     32 H          -1.5854    7.9180    4.0017 H       1  UNL1        0.0000
     33 H          -1.7331    7.3599    2.3370 H       1  UNL1        0.0000
     34 C          -2.2737    5.3430    4.2456 C.3     1  UNL1        0.0000
     35 H          -3.0719    5.5501    3.5322 H       1  UNL1        0.0000
     36 H          -2.5271    5.8349    5.1827 H       1  UNL1        0.0000
     37 H          -2.2458    4.2683    4.4061 H       1  UNL1        0.0000
     38 C           2.7013    9.4396    4.9631 C.3     1  UNL1        0.0000
     39 H           2.7614    9.9134    5.9629 H       1  UNL1        0.0000
     40 H           2.1383   10.1547    4.3320 H       1  UNL1        0.0000
     41 C           4.1168    9.2587    4.4248 C.3     1  UNL1        0.0000
     42 H           4.7800    9.0412    5.2634 H       1  UNL1        0.0000
     43 H           4.4817   10.1508    3.9121 H       1  UNL1        0.0000
     44 C           5.8403    7.0675    3.6185 C.3     1  UNL1        0.0000
     45 C           5.7445    6.3488    4.9687 C.3     1  UNL1        0.0000
     46 H           4.9762    5.5762    4.9264 H       1  UNL1        0.0000
     47 H           5.4830    7.0381    5.7695 H       1  UNL1        0.0000
     48 H           6.6955    5.8801    5.2195 H       1  UNL1        0.0000
     49 C           6.9548    8.1123    3.6856 C.3     1  UNL1        0.0000
     50 H           7.0823    8.6316    2.7415 H       1  UNL1        0.0000
     51 H           7.8941    7.6097    3.9177 H       1  UNL1        0.0000
     52 H           6.7748    8.8494    4.4636 H       1  UNL1        0.0000
     53 C           6.1789    6.0319    2.5473 C.3     1  UNL1        0.0000
     54 H           6.3970    6.5029    1.5919 H       1  UNL1        0.0000
     55 H           5.3592    5.3300    2.4176 H       1  UNL1        0.0000
     56 H           7.0618    5.4674    2.8472 H       1  UNL1        0.0000
     57 C           3.9009    8.4411    1.5985 C.3     1  UNL1        0.0000
     58 C           2.6608    9.3373    1.6535 C.3     1  UNL1        0.0000
     59 H           2.3046    9.5525    0.6465 H       1  UNL1        0.0000
     60 H           2.8731   10.2834    2.1454 H       1  UNL1        0.0000
     61 H           1.8645    8.8265    2.1978 H       1  UNL1        0.0000
     62 C           5.0846    9.2428    1.0671 C.3     1  UNL1        0.0000
     63 H           5.9346    8.6013    0.8497 H       1  UNL1        0.0000
     64 H           5.3920   10.0126    1.7724 H       1  UNL1        0.0000
     65 H           4.7967    9.7362    0.1384 H       1  UNL1        0.0000
     66 C           3.5862    7.2711    0.6661 C.3     1  UNL1        0.0000
     67 H           3.3263    7.6419   -0.3251 H       1  UNL1        0.0000
     68 H           2.7389    6.7084    1.0578 H       1  UNL1        0.0000
     69 H           4.4276    6.5931    0.5637 H       1  UNL1        0.0000
     70 C           2.8000    5.1930    3.3182 C.3     1  UNL1        0.0000
@<TRIPOS>BOND
     1    67    66    1
     2    65    62    1
     3    69    66    1
     4    59    58    1
     5    66    68    1
     6    66    57    1
     7    63    62    1
     8    62    57    1
     9    62    64    1
    10    54    53    1
    11    57    58    1
    12    57    11    1
    13    58    60    1
    14    58    61    1
    15    27    26    1
    16    29    26    1
    17    33    30    1
    18    55    53    1
    19    26    28    1
    20    26    25    1
    21    53    56    1
    22    53    44    1
    23    50    49    1
    24     3    70    1
    25    31    30    1
    26    30    25    1
    27    30    32    1
    28    70     1    1
    29    11    44    1
    30    11     1    1
    31    11    41    1
    32    35    34    1
    33    44    49    1
    34    44    45    1
    35    49    51    1
    36    49    52    1
    37    25    34    1
    38    25     2    1
    39    43    41    1
    40     1     2    1
    41     1     4    1
    42    34    37    1
    43    34    36    1
    44    24    21    1
    45    40    38    1
    46    41    38    1
    47    41    42    1
    48    22    21    1
    49     2    12    1
    50     2     8    1
    51    46    45    1
    52    38     4    1
    53    38    39    1
    54    45    48    1
    55    45    47    1
    56     4     5    1
    57    21    23    1
    58    21    12    1
    59     6     5    1
    60     5     8    1
    61     5     7    1
    62    12    13    1
    63    12    17    1
    64    14    13    1
    65     8     9    1
    66     8    10    1
    67    18    17    1
    68    13    15    1
    69    13    16    1
    70    17    20    1
    71    17    19    1
