@<TRIPOS>MOLECULE
CSD_code = IQOGEC | q = 0 | S = 0 | Stoichiometry = C30H41Br2CoP2Si | MND = 5
 77 81 0 0 0
SMALL
GASTEIGER

@<TRIPOS>ATOM
      1 CO          2.9199    5.5839    5.8992 Co.oh   1  UNL1        0.0000
      2 P           2.7135    7.7263    6.5058 P.3     1  UNL1        0.0000
      3 P           3.3127    3.3483    6.1047 P.3     1  UNL1        0.0000
      4 SI          5.1547    5.7361    6.3761 Si      1  UNL1        0.0000
      5 BR          0.6413    5.3666    6.3141 Br      1  UNL1        0.0000
      6 BR          3.9704    6.0930    3.8710 Br      1  UNL1        0.0000
      7 C           6.7624    5.2774    5.4481 C.ar    1  UNL1        0.0000
      8 C           7.3120    6.1448    4.5085 C.ar    1  UNL1        0.0000
      9 H           6.7960    7.0615    4.2645 H       1  UNL1        0.0000
     10 C           8.5037    5.8459    3.8757 C.ar    1  UNL1        0.0000
     11 H           8.9119    6.5321    3.1486 H       1  UNL1        0.0000
     12 C           9.1700    4.6680    4.1707 C.ar    1  UNL1        0.0000
     13 H          10.0992    4.4297    3.6740 H       1  UNL1        0.0000
     14 C           8.6390    3.7976    5.1064 C.ar    1  UNL1        0.0000
     15 H           9.1523    2.8772    5.3457 H       1  UNL1        0.0000
     16 C           7.4482    4.1046    5.7401 C.ar    1  UNL1        0.0000
     17 H           7.0500    3.4208    6.4756 H       1  UNL1        0.0000
     18 C           5.4199    7.5509    6.8615 C.ar    1  UNL1        0.0000
     19 C           4.3647    8.4564    6.7785 C.ar    1  UNL1        0.0000
     20 C           4.6054    9.8116    6.9788 C.ar    1  UNL1        0.0000
     21 H           3.8095   10.5347    6.8821 H       1  UNL1        0.0000
     22 C           5.8797   10.2511    7.2903 C.ar    1  UNL1        0.0000
     23 H           6.0600   11.3055    7.4425 H       1  UNL1        0.0000
     24 C           6.9215    9.3452    7.4083 C.ar    1  UNL1        0.0000
     25 H           7.9137    9.6900    7.6596 H       1  UNL1        0.0000
     26 C           6.6905    8.0010    7.1805 C.ar    1  UNL1        0.0000
     27 H           7.5049    7.2936    7.2372 H       1  UNL1        0.0000
     28 C           5.1455    4.4525    7.7863 C.ar    1  UNL1        0.0000
     29 C           4.4477    3.2690    7.5349 C.ar    1  UNL1        0.0000
     30 C           4.6216    2.1830    8.3836 C.ar    1  UNL1        0.0000
     31 H           4.1307    1.2435    8.1839 H       1  UNL1        0.0000
     32 C           5.4473    2.2921    9.4897 C.ar    1  UNL1        0.0000
     33 H           5.5765    1.4435   10.1459 H       1  UNL1        0.0000
     34 C           6.1053    3.4812    9.7588 C.ar    1  UNL1        0.0000
     35 H           6.7373    3.5647   10.6308 H       1  UNL1        0.0000
     36 C           5.9691    4.5531    8.8940 C.ar    1  UNL1        0.0000
     37 H           6.5050    5.4732    9.0774 H       1  UNL1        0.0000
     38 C           2.5053    9.3428    4.2465 C.3     1  UNL1        0.0000
     39 H           2.0735   10.2287    3.7835 H       1  UNL1        0.0000
     40 H           2.3797    8.5081    3.5614 H       1  UNL1        0.0000
     41 H           3.5728    9.5113    4.3850 H       1  UNL1        0.0000
     42 C           1.8077    9.0593    5.5739 C.3     1  UNL1        0.0000
     43 H           1.8613    9.9549    6.2062 H       1  UNL1        0.0000
     44 C           0.3431    8.7029    5.3479 C.3     1  UNL1        0.0000
     45 H          -0.1674    9.5366    4.8681 H       1  UNL1        0.0000
     46 H          -0.1668    8.4802    6.2832 H       1  UNL1        0.0000
     47 H           0.2565    7.8355    4.6977 H       1  UNL1        0.0000
     48 C           2.0424    9.1957    8.8952 C.3     1  UNL1        0.0000
     49 H           1.5973    9.1229    9.8869 H       1  UNL1        0.0000
     50 H           1.4707    9.9292    8.3316 H       1  UNL1        0.0000
     51 H           3.0645    9.5521    9.0116 H       1  UNL1        0.0000
     52 C           2.0102    7.8220    8.2382 C.3     1  UNL1        0.0000
     53 H           0.9662    7.4994    8.1412 H       1  UNL1        0.0000
     54 C           2.7551    6.8052    9.1010 C.3     1  UNL1        0.0000
     55 H           2.3066    6.7455   10.0912 H       1  UNL1        0.0000
     56 H           3.8026    7.0860    9.2138 H       1  UNL1        0.0000
     57 H           2.7134    5.8081    8.6565 H       1  UNL1        0.0000
     58 C           3.4352    2.4589    3.4789 C.3     1  UNL1        0.0000
     59 H           4.0535    2.2626    2.6052 H       1  UNL1        0.0000
     60 H           2.8859    3.3824    3.2992 H       1  UNL1        0.0000
     61 H           2.7163    1.6493    3.5776 H       1  UNL1        0.0000
     62 C           4.3133    2.5908    4.7214 C.3     1  UNL1        0.0000
     63 H           5.0616    3.3707    4.5180 H       1  UNL1        0.0000
     64 C           5.0768    1.3109    5.0413 C.3     1  UNL1        0.0000
     65 H           5.8085    1.1326    4.2542 H       1  UNL1        0.0000
     66 H           4.4228    0.4463    5.0907 H       1  UNL1        0.0000
     67 H           5.6137    1.3973    5.9843 H       1  UNL1        0.0000
     68 C           1.4342    2.4587    7.9674 C.3     1  UNL1        0.0000
     69 H           0.3964    2.1536    8.0833 H       1  UNL1        0.0000
     70 H           1.4959    3.5132    8.2277 H       1  UNL1        0.0000
     71 H           2.0380    1.9011    8.6790 H       1  UNL1        0.0000
     72 C           1.8881    2.2046    6.5266 C.3     1  UNL1        0.0000
     73 H           1.0954    2.5713    5.8575 H       1  UNL1        0.0000
     74 C           2.0316    0.7046    6.2834 C.3     1  UNL1        0.0000
     75 H           1.1083    0.2204    6.6016 H       1  UNL1        0.0000
     76 H           2.8468    0.2672    6.8538 H       1  UNL1        0.0000
     77 H           2.1763    0.4741    5.2320 H       1  UNL1        0.0000
@<TRIPOS>BOND
     1    59    58    1
     2    11    10    1
     3    60    58    1
     4    58    61    1
     5    58    62    1
     6    40    38    1
     7    13    12    1
     8    39    38    1
     9     6     1    1
    10    10    12   ar
    11    10     8   ar
    12    12    14   ar
    13    38    41    1
    14    38    42    1
    15    65    64    1
    16     9     8    1
    17     8     7   ar
    18    63    62    1
    19    47    44    1
    20    62    64    1
    21    62     3    1
    22    45    44    1
    23    64    66    1
    24    64    67    1
    25    14    15    1
    26    14    16   ar
    27    77    74    1
    28    44    42    1
    29    44    46    1
    30     7    16   ar
    31     7     4    1
    32    42    43    1
    33    42     2    1
    34    16    17    1
    35    73    72    1
    36     1     3    1
    37     1     5    1
    38     1     4    1
    39     1     2    1
    40     3    72    1
    41     3    29    1
    42    74    72    1
    43    74    75    1
    44    74    76    1
    45     4    18    1
    46     4    28    1
    47     2    19    1
    48     2    52    1
    49    72    68    1
    50    19    18   ar
    51    19    20   ar
    52    18    26   ar
    53    21    20    1
    54    20    22   ar
    55    26    27    1
    56    26    24   ar
    57    22    24   ar
    58    22    23    1
    59    24    25    1
    60    29    28   ar
    61    29    30   ar
    62    28    36   ar
    63    68    69    1
    64    68    70    1
    65    68    71    1
    66    53    52    1
    67    31    30    1
    68    52    48    1
    69    52    54    1
    70    50    48    1
    71    30    32   ar
    72    57    54    1
    73    36    37    1
    74    36    34   ar
    75    48    51    1
    76    48    49    1
    77    54    56    1
    78    54    55    1
    79    32    34   ar
    80    32    33    1
    81    34    35    1
