@<TRIPOS>MOLECULE
CSD_code = IRUZIE | q = 1 | S = 0 | Stoichiometry = C28H24CoN6O4(1+) | MND = 6
 63 70 0 0 0
SMALL
GASTEIGER

@<TRIPOS>ATOM
      1 CO          6.1239    3.1874    1.8631 Co.oh   1  UNL1        0.0000
      2 O           6.0954    2.9471   -0.0018 O.2     1  UNL1        0.0000
      3 O           6.0737    0.0932   -5.6204 O.3     1  UNL1        0.0000
      4 O           7.9840    3.4753    1.8406 O.2     1  UNL1        0.0000
      5 O          13.4464    6.6979    1.7231 O.3     1  UNL1        0.0000
      6 N           6.2029    3.0125    3.7624 N.pl3   1  UNL1        0.0000
      7 N           6.2688    1.3853    1.8591 N.pl3   1  UNL1        0.0000
      8 N           6.2799    0.7901    0.6932 N.2     1  UNL1        0.0000
      9 N           4.2182    3.3164    1.8475 N.pl3   1  UNL1        0.0000
     10 N           6.0784    4.9917    1.7591 N.pl3   1  UNL1        0.0000
     11 N           7.2277    5.6163    1.7229 N.2     1  UNL1        0.0000
     12 C           6.1794    3.9399    4.7142 C.3     1  UNL1        0.0000
     13 H           6.0345    4.9639    4.3979 H       1  UNL1        0.0000
     14 C           6.3349    3.6391    6.0552 C.2     1  UNL1        0.0000
     15 H           6.3103    4.4287    6.7875 H       1  UNL1        0.0000
     16 C           6.5267    2.3135    6.4303 C.2     1  UNL1        0.0000
     17 H           6.6542    2.0513    7.4688 H       1  UNL1        0.0000
     18 C           6.5546    1.3424    5.4513 C.2     1  UNL1        0.0000
     19 H           6.7055    0.3029    5.6934 H       1  UNL1        0.0000
     20 C           6.3930    1.7134    4.1130 C.2     1  UNL1        0.0000
     21 C           6.4239    0.8043    3.0097 C.3     1  UNL1        0.0000
     22 H           6.5849   -0.2594    3.1132 H       1  UNL1        0.0000
     23 C           6.1833    1.7040   -0.2814 C.2     1  UNL1        0.0000
     24 C           6.1682    1.2543   -1.6586 C.ar    1  UNL1        0.0000
     25 C           6.0907    2.1875   -2.7025 C.ar    1  UNL1        0.0000
     26 H           6.0549    3.2385   -2.4608 H       1  UNL1        0.0000
     27 C           6.0640    1.7662   -4.0061 C.ar    1  UNL1        0.0000
     28 H           6.0056    2.4679   -4.8226 H       1  UNL1        0.0000
     29 C           6.1125    0.3969   -4.3157 C.ar    1  UNL1        0.0000
     30 C           6.1949   -0.5348   -3.2746 C.ar    1  UNL1        0.0000
     31 H           6.2378   -1.5913   -3.4851 H       1  UNL1        0.0000
     32 C           6.2236   -0.1080   -1.9659 C.ar    1  UNL1        0.0000
     33 H           6.2892   -0.8202   -1.1593 H       1  UNL1        0.0000
     34 C           6.1136   -1.2593   -6.0259 C.3     1  UNL1        0.0000
     35 H           7.0423   -1.7428   -5.7111 H       1  UNL1        0.0000
     36 H           6.0678   -1.2395   -7.1130 H       1  UNL1        0.0000
     37 H           5.2573   -1.8172   -5.6372 H       1  UNL1        0.0000
     38 C           3.2902    2.3655    1.8811 C.3     1  UNL1        0.0000
     39 H           3.6355    1.3470    1.9957 H       1  UNL1        0.0000
     40 C           1.9383    2.6358    1.7727 C.2     1  UNL1        0.0000
     41 H           1.2263    1.8280    1.8035 H       1  UNL1        0.0000
     42 C           1.5255    3.9552    1.6192 C.2     1  UNL1        0.0000
     43 H           0.4776    4.1941    1.5281 H       1  UNL1        0.0000
     44 C           2.4793    4.9506    1.5817 C.2     1  UNL1        0.0000
     45 H           2.2075    5.9865    1.4593 H       1  UNL1        0.0000
     46 C           3.8306    4.6099    1.6953 C.2     1  UNL1        0.0000
     47 C           4.9098    5.5466    1.6500 C.3     1  UNL1        0.0000
     48 H           4.7763    6.6101    1.5124 H       1  UNL1        0.0000
     49 C           8.2282    4.7274    1.7695 C.2     1  UNL1        0.0000
     50 C           9.5913    5.2180    1.7490 C.ar    1  UNL1        0.0000
     51 C          10.6622    4.3211    1.7910 C.ar    1  UNL1        0.0000
     52 H          10.4537    3.2627    1.8288 H       1  UNL1        0.0000
     53 C          11.9628    4.7729    1.7832 C.ar    1  UNL1        0.0000
     54 H          12.7698    4.0585    1.8159 H       1  UNL1        0.0000
     55 C          12.2252    6.1461    1.7315 C.ar    1  UNL1        0.0000
     56 C          11.1481    7.0474    1.6846 C.ar    1  UNL1        0.0000
     57 H          11.3736    8.1008    1.6414 H       1  UNL1        0.0000
     58 C           9.8549    6.5944    1.6922 C.ar    1  UNL1        0.0000
     59 H           9.0261    7.2820    1.6539 H       1  UNL1        0.0000
     60 C          14.5897    5.8697    1.7658 C.3     1  UNL1        0.0000
     61 H          14.6175    5.2754    2.6833 H       1  UNL1        0.0000
     62 H          15.4415    6.5470    1.7490 H       1  UNL1        0.0000
     63 H          14.6356    5.2082    0.8964 H       1  UNL1        0.0000
@<TRIPOS>BOND
     1    36    34    1
     2    34    35    1
     3    34    37    1
     4    34     3    1
     5     3    29    1
     6    28    27    1
     7    29    27   ar
     8    29    30   ar
     9    27    25   ar
    10    31    30    1
    11    30    32   ar
    12    25    26    1
    13    25    24   ar
    14    32    24   ar
    15    32    33    1
    16    24    23    1
    17    23     2    1
    18    23     8    2
    19     2     1    1
    20     8     7    1
    21    63    60    1
    22    45    44    1
    23    48    47    1
    24    43    42    1
    25    44    42    1
    26    44    46    2
    27    42    40    2
    28    57    56    1
    29    47    46    1
    30    47    10    1
    31    59    58    1
    32    56    58   ar
    33    56    55   ar
    34    58    50   ar
    35    46     9    1
    36    11    10    1
    37    11    49    2
    38     5    55    1
    39     5    60    1
    40    55    53   ar
    41    50    49    1
    42    50    51   ar
    43    62    60    1
    44    10     1    1
    45    60    61    1
    46    49     4    1
    47    40    41    1
    48    40    38    1
    49    53    51   ar
    50    53    54    1
    51    51    52    1
    52     4     1    1
    53     9     1    1
    54     9    38    1
    55     7     1    1
    56     7    21    1
    57     1     6    1
    58    38    39    1
    59    21    22    1
    60    21    20    1
    61     6    20    1
    62     6    12    1
    63    20    18    2
    64    13    12    1
    65    12    14    1
    66    18    19    1
    67    18    16    1
    68    14    16    2
    69    14    15    1
    70    16    17    1
