@<TRIPOS>MOLECULE
CSD_code = IYUFOZ | q = 0 | S = 0 | Stoichiometry = C22H42CoN3P2 | MND = 4
 70 72 0 0 0
SMALL
GASTEIGER

@<TRIPOS>ATOM
      1 CO          8.5039   11.7484   11.7191 Co.oh   1  UNL1        0.0000
      2 P           6.8083   10.6219   10.8370 P.3     1  UNL1        0.0000
      3 P          10.3061   12.4040   12.8341 P.3     1  UNL1        0.0000
      4 N           8.8737   10.1271   12.5195 N.ar    1  UNL1        0.0000
      5 N           8.1798   13.1722   11.0157 N.3     1  UNL1        0.0000
      6 N           7.9542   14.1629   10.5259 N.3     1  UNL1        0.0000
      7 C           8.0620    9.0285   12.5428 C.ar    1  UNL1        0.0000
      8 C           8.6753    8.0081   13.2286 C.ar    1  UNL1        0.0000
      9 C           9.9288    8.5012   13.6489 C.ar    1  UNL1        0.0000
     10 C          10.0124    9.7964   13.1980 C.ar    1  UNL1        0.0000
     11 C           6.7141    9.1224   11.9038 C.3     1  UNL1        0.0000
     12 C           5.0465   11.3068   10.8981 C.3     1  UNL1        0.0000
     13 C           4.9902   12.0177   12.2557 C.3     1  UNL1        0.0000
     14 C           4.8270   12.3439    9.7982 C.3     1  UNL1        0.0000
     15 C           3.9496   10.2449   10.8342 C.3     1  UNL1        0.0000
     16 C           7.2562    9.9409    9.1334 C.3     1  UNL1        0.0000
     17 C           7.5825   11.1108    8.2032 C.3     1  UNL1        0.0000
     18 C           6.1994    9.0424    8.4991 C.3     1  UNL1        0.0000
     19 C           8.5501    9.1524    9.3575 C.3     1  UNL1        0.0000
     20 C          11.1072   10.8095   13.2935 C.3     1  UNL1        0.0000
     21 C           9.8381   13.1729   14.4943 C.3     1  UNL1        0.0000
     22 C          11.0168   13.5515   15.3852 C.3     1  UNL1        0.0000
     23 C           8.9538   14.3949   14.2391 C.3     1  UNL1        0.0000
     24 C           8.9755   12.1137   15.1872 C.3     1  UNL1        0.0000
     25 C          11.6949   13.3515   11.9680 C.3     1  UNL1        0.0000
     26 C          11.3381   14.8300   11.8249 C.3     1  UNL1        0.0000
     27 C          11.7337   12.7225   10.5701 C.3     1  UNL1        0.0000
     28 C          13.0667   13.2118   12.6265 C.3     1  UNL1        0.0000
     29 H           8.2786    7.0261   13.4103 H       1  UNL1        0.0000
     30 H          10.6724    7.9670   14.2113 H       1  UNL1        0.0000
     31 H           6.4515    8.2203   11.3442 H       1  UNL1        0.0000
     32 H           5.9468    9.2793   12.6701 H       1  UNL1        0.0000
     33 H           5.7309   12.8171   12.2940 H       1  UNL1        0.0000
     34 H           5.1903   11.3278   13.0746 H       1  UNL1        0.0000
     35 H           4.0061   12.4560   12.4157 H       1  UNL1        0.0000
     36 H           3.9210   12.9131   10.0048 H       1  UNL1        0.0000
     37 H           4.7058   11.8702    8.8270 H       1  UNL1        0.0000
     38 H           5.6602   13.0424    9.7522 H       1  UNL1        0.0000
     39 H           2.9791   10.7306   10.9365 H       1  UNL1        0.0000
     40 H           4.0422    9.5188   11.6377 H       1  UNL1        0.0000
     41 H           3.9574    9.7137    9.8875 H       1  UNL1        0.0000
     42 H           8.0216   10.7366    7.2789 H       1  UNL1        0.0000
     43 H           8.3037   11.7766    8.6769 H       1  UNL1        0.0000
     44 H           6.7001   11.6884    7.9462 H       1  UNL1        0.0000
     45 H           5.3333    9.6170    8.1790 H       1  UNL1        0.0000
     46 H           5.8728    8.2618    9.1833 H       1  UNL1        0.0000
     47 H           6.6194    8.5582    7.6176 H       1  UNL1        0.0000
     48 H           8.9605    8.8280    8.4018 H       1  UNL1        0.0000
     49 H           8.3899    8.2728    9.9761 H       1  UNL1        0.0000
     50 H           9.2915    9.7857    9.8503 H       1  UNL1        0.0000
     51 H          11.5677   10.8376   14.2851 H       1  UNL1        0.0000
     52 H          11.8922   10.5823   12.5636 H       1  UNL1        0.0000
     53 H          11.5469   14.4160   14.9925 H       1  UNL1        0.0000
     54 H          11.7178   12.7264   15.4951 H       1  UNL1        0.0000
     55 H          10.6500   13.8113   16.3781 H       1  UNL1        0.0000
     56 H           8.5259   14.7446   15.1781 H       1  UNL1        0.0000
     57 H           8.1350   14.1312   13.5696 H       1  UNL1        0.0000
     58 H           9.5079   15.2162   13.7955 H       1  UNL1        0.0000
     59 H           8.5443   12.5222   16.1006 H       1  UNL1        0.0000
     60 H           9.5486   11.2273   15.4478 H       1  UNL1        0.0000
     61 H           8.1578   11.8102   14.5296 H       1  UNL1        0.0000
     62 H          12.0097   15.3027   11.1085 H       1  UNL1        0.0000
     63 H          11.4414   15.3551   12.7714 H       1  UNL1        0.0000
     64 H          10.3196   14.9494   11.4609 H       1  UNL1        0.0000
     65 H          12.5123   13.1853    9.9654 H       1  UNL1        0.0000
     66 H          10.7779   12.8659   10.0650 H       1  UNL1        0.0000
     67 H          11.9356   11.6531   10.6205 H       1  UNL1        0.0000
     68 H          13.3765   12.1725   12.6991 H       1  UNL1        0.0000
     69 H          13.0828   13.6462   13.6211 H       1  UNL1        0.0000
     70 H          13.8059   13.7366   12.0212 H       1  UNL1        0.0000
@<TRIPOS>BOND
     1    42    17    1
     2    47    18    1
     3    44    17    1
     4    45    18    1
     5    17    43    1
     6    17    16    1
     7    48    19    1
     8    18    16    1
     9    18    46    1
    10    37    14    1
    11    16    19    1
    12    16     2    1
    13    19    50    1
    14    19    49    1
    15    38    14    1
    16    14    36    1
    17    14    12    1
    18    41    15    1
    19    65    27    1
    20    66    27    1
    21     6     5    1
    22    27    67    1
    23    27    25    1
    24    15    12    1
    25    15    39    1
    26    15    40    1
    27     2    12    1
    28     2     1    1
    29     2    11    1
    30    12    13    1
    31     5     1    1
    32    62    26    1
    33    31    11    1
    34    64    26    1
    35     1     4    1
    36     1     3    1
    37    26    25    1
    38    26    63    1
    39    11     7    1
    40    11    32    1
    41    25    28    1
    42    25     3    1
    43    70    28    1
    44    13    33    1
    45    13    35    1
    46    13    34    1
    47     4     7   ar
    48     4    10   ar
    49     7     8   ar
    50    52    20    1
    51    28    68    1
    52    28    69    1
    53     3    20    1
    54     3    21    1
    55    10    20    1
    56    10     9   ar
    57     8    29    1
    58     8     9   ar
    59    20    51    1
    60    57    23    1
    61     9    30    1
    62    58    23    1
    63    23    21    1
    64    23    56    1
    65    21    24    1
    66    21    22    1
    67    61    24    1
    68    53    22    1
    69    24    60    1
    70    24    59    1
    71    22    54    1
    72    22    55    1
