@<TRIPOS>MOLECULE
CSD_code = IZODUY | q = 0 | S = 0 | Stoichiometry = C23H14CoN7 | MND = 6
 45 50 0 0 0
SMALL
GASTEIGER

@<TRIPOS>ATOM
      1 CO          2.7014    5.4337    2.6149 Co.oh   1  UNL1        0.0000
      2 C           2.1659    1.0994    1.3227 C.2     1  UNL1        0.0000
      3 N           2.0474    5.8024    0.8707 N.pl3   1  UNL1        0.0000
      4 C           2.0254    3.4537    0.8705 C.3     1  UNL1        0.0000
      5 C           1.4957   -1.2565    1.7905 C.ar    1  UNL1        0.0000
      6 H           1.2086   -0.9868    2.7953 H       1  UNL1        0.0000
      7 C           3.2850    3.2849    4.2173 C.3     1  UNL1        0.0000
      8 N           1.6552   -2.9500    0.1193 N.ar    1  UNL1        0.0000
      9 C           1.9903   -0.2975    0.9074 C.ar    1  UNL1        0.0000
     10 N           2.4926    3.7179    2.1021 N.pl3   1  UNL1        0.0000
     11 C           3.6913    2.5333    5.3159 C.2     1  UNL1        0.0000
     12 H           3.6633    1.4566    5.2644 H       1  UNL1        0.0000
     13 C           1.3627    7.1325   -0.9854 C.2     1  UNL1        0.0000
     14 H           1.2195    8.1190   -1.3948 H       1  UNL1        0.0000
     15 C           2.6452    1.4054    2.5987 C.2     1  UNL1        0.0000
     16 H           2.9079    0.6138    3.2817 H       1  UNL1        0.0000
     17 C           4.1256    3.1778    6.4561 C.2     1  UNL1        0.0000
     18 H           4.4447    2.6150    7.3192 H       1  UNL1        0.0000
     19 C           1.2737    4.7609   -1.1530 C.2     1  UNL1        0.0000
     20 H           1.0588    3.8535   -1.6942 H       1  UNL1        0.0000
     21 N          -0.1134    5.5291    3.7046 N.1     1  UNL1        0.0000
     22 C           2.3114   -0.7133   -0.3842 C.ar    1  UNL1        0.0000
     23 H           2.7203   -0.0195   -1.1028 H       1  UNL1        0.0000
     24 C           1.8454    6.9921    0.3003 C.3     1  UNL1        0.0000
     25 H           2.0804    7.8616    0.8994 H       1  UNL1        0.0000
     26 C           0.9632    5.5611    3.3105 C.1     1  UNL1        0.0000
     27 C           2.8039    2.7339    2.9622 C.2     1  UNL1        0.0000
     28 C           1.8553    2.1439    0.4485 C.2     1  UNL1        0.0000
     29 H           1.4663    1.9293   -0.5337 H       1  UNL1        0.0000
     30 N           3.3045    4.6445    4.2335 N.pl3   1  UNL1        0.0000
     31 C           1.3477   -2.5590    1.3436 C.ar    1  UNL1        0.0000
     32 H           0.9625   -3.3301    1.9978 H       1  UNL1        0.0000
     33 C           3.7268    5.2563    5.3420 C.2     1  UNL1        0.0000
     34 H           3.7312    6.3379    5.3255 H       1  UNL1        0.0000
     35 C           4.1413    4.5676    6.4644 C.2     1  UNL1        0.0000
     36 H           4.4716    5.1149    7.3319 H       1  UNL1        0.0000
     37 C           2.1266   -2.0443   -0.7196 C.ar    1  UNL1        0.0000
     38 H           2.3686   -2.4059   -1.7103 H       1  UNL1        0.0000
     39 C           1.7634    4.6863    0.1476 C.2     1  UNL1        0.0000
     40 N           5.5349    5.4919    1.5704 N.1     1  UNL1        0.0000
     41 C           4.4674    5.5365    1.9875 C.1     1  UNL1        0.0000
     42 C           1.0689    5.9970   -1.7312 C.2     1  UNL1        0.0000
     43 H           0.6900    6.0781   -2.7379 H       1  UNL1        0.0000
     44 C           2.9138    7.2022    3.1450 C.1     1  UNL1        0.0000
     45 N           3.0446    8.2957    3.4720 N.1     1  UNL1        0.0000
@<TRIPOS>BOND
     1    43    42    1
     2    42    19    1
     3    42    13    2
     4    38    37    1
     5    20    19    1
     6    14    13    1
     7    19    39    2
     8    23    22    1
     9    13    24    1
    10    37    22   ar
    11    37     8   ar
    12    29    28    1
    13    22     9   ar
    14     8    31   ar
    15    39     4    1
    16    39     3    1
    17    24     3    1
    18    24    25    1
    19    28     4    1
    20    28     2    2
    21     4    10    1
    22     3     1    1
    23     9     2    1
    24     9     5   ar
    25     2    15    1
    26    31     5   ar
    27    31    32    1
    28    40    41    3
    29     5     6    1
    30    41     1    1
    31    10     1    1
    32    10    27    1
    33    15    27    2
    34    15    16    1
    35     1    44    1
    36     1    26    1
    37     1    30    1
    38    27     7    1
    39    44    45    3
    40    26    21    3
    41     7    30    1
    42     7    11    1
    43    30    33    1
    44    12    11    1
    45    11    17    2
    46    34    33    1
    47    33    35    2
    48    17    35    1
    49    17    18    1
    50    35    36    1
