@<TRIPOS>MOLECULE
CSD_code = JATKEX | q = 0 | S = 0 | Stoichiometry = C34H51BCoN7O2 | MND = 6
 96 102 0 0 0
SMALL
GASTEIGER

@<TRIPOS>ATOM
      1 CO          3.0960    2.2428    3.6351 Co.oh   1  UNL1        0.0000
      2 O           2.0064    3.1220    2.4059 O.3     1  UNL1        0.0000
      3 O           1.5127    1.9986    4.6425 O.3     1  UNL1        0.0000
      4 N           2.8902    0.5716    2.7131 N.3     1  UNL1        0.0000
      5 N           3.9990   -0.1628    2.5023 N.pl3   1  UNL1        0.0000
      6 N           4.6882    2.6390    2.5748 N.3     1  UNL1        0.0000
      7 N           5.6094    1.6823    2.3972 N.pl3   1  UNL1        0.0000
      8 N           4.2395    1.3510    4.9537 N.3     1  UNL1        0.0000
      9 N           5.2077    0.5314    4.5174 N.pl3   1  UNL1        0.0000
     10 N           3.1464    3.8897    4.5156 N.3     1  UNL1        0.0000
     11 C           0.4482    0.3743    2.1679 C.3     1  UNL1        0.0000
     12 H           0.3511    1.3163    1.6334 H       1  UNL1        0.0000
     13 H           0.1019    0.5329    3.1854 H       1  UNL1        0.0000
     14 H          -0.1789   -0.3728    1.6889 H       1  UNL1        0.0000
     15 C           1.8617   -0.0786    2.1669 C.3     1  UNL1        0.0000
     16 C           2.3253   -1.2704    1.5868 C.2     1  UNL1        0.0000
     17 C           3.6896   -1.2827    1.8233 C.2     1  UNL1        0.0000
     18 C           4.7058   -2.2985    1.4381 C.3     1  UNL1        0.0000
     19 H           5.4717   -1.8531    0.8062 H       1  UNL1        0.0000
     20 H           4.2325   -3.1094    0.8921 H       1  UNL1        0.0000
     21 H           5.1909   -2.7094    2.3214 H       1  UNL1        0.0000
     22 C           1.4961   -2.2854    0.8742 C.3     1  UNL1        0.0000
     23 H           1.0067   -1.8406    0.0082 H       1  UNL1        0.0000
     24 H           0.7249   -2.6819    1.5342 H       1  UNL1        0.0000
     25 H           2.1109   -3.1137    0.5318 H       1  UNL1        0.0000
     26 C           4.3536    5.0114    1.8676 C.3     1  UNL1        0.0000
     27 H           3.2883    4.8058    1.9074 H       1  UNL1        0.0000
     28 H           4.5907    5.5279    0.9404 H       1  UNL1        0.0000
     29 H           4.6239    5.6577    2.7032 H       1  UNL1        0.0000
     30 C           5.1040    3.7300    1.9338 C.3     1  UNL1        0.0000
     31 C           6.3451    3.4672    1.3329 C.2     1  UNL1        0.0000
     32 C           6.6278    2.1477    1.6510 C.2     1  UNL1        0.0000
     33 C           7.8034    1.3124    1.2879 C.3     1  UNL1        0.0000
     34 H           8.3059    0.9497    2.1827 H       1  UNL1        0.0000
     35 H           8.5085    1.8948    0.7018 H       1  UNL1        0.0000
     36 H           7.4921    0.4496    0.7019 H       1  UNL1        0.0000
     37 C           7.1505    4.4294    0.5269 C.3     1  UNL1        0.0000
     38 H           7.2813    5.3641    1.0703 H       1  UNL1        0.0000
     39 H           6.6495    4.6537   -0.4151 H       1  UNL1        0.0000
     40 H           8.1323    4.0208    0.3028 H       1  UNL1        0.0000
     41 C           3.3866    2.1668    7.1453 C.3     1  UNL1        0.0000
     42 H           2.4533    2.3137    6.6128 H       1  UNL1        0.0000
     43 H           3.8191    3.1382    7.3874 H       1  UNL1        0.0000
     44 H           3.1976    1.6314    8.0730 H       1  UNL1        0.0000
     45 C           4.3057    1.3827    6.2832 C.3     1  UNL1        0.0000
     46 C           5.3573    0.5616    6.7174 C.2     1  UNL1        0.0000
     47 C           5.9036    0.0354    5.5570 C.2     1  UNL1        0.0000
     48 C           7.0413   -0.9067    5.3858 C.3     1  UNL1        0.0000
     49 H           7.8257   -0.4543    4.7817 H       1  UNL1        0.0000
     50 H           6.7116   -1.8157    4.8863 H       1  UNL1        0.0000
     51 H           7.4543   -1.1723    6.3547 H       1  UNL1        0.0000
     52 C           5.7577    0.3276    8.1344 C.3     1  UNL1        0.0000
     53 H           5.8647    1.2755    8.6600 H       1  UNL1        0.0000
     54 H           6.7032   -0.2059    8.1877 H       1  UNL1        0.0000
     55 H           5.0012   -0.2621    8.6536 H       1  UNL1        0.0000
     56 C           2.4514    4.7576    4.8188 C.3     1  UNL1        0.0000
     57 C           1.6275    5.8560    5.2187 C.3     1  UNL1        0.0000
     58 H           1.6552    5.9660    6.3026 H       1  UNL1        0.0000
     59 H           0.6016    5.6565    4.9011 H       1  UNL1        0.0000
     60 H           1.9794    6.7740    4.7485 H       1  UNL1        0.0000
     61 C           0.8301    3.4199    2.9504 C.ar    1  UNL1        0.0000
     62 C           0.5334    2.7822    4.1792 C.ar    1  UNL1        0.0000
     63 C          -0.7032    3.0156    4.7892 C.ar    1  UNL1        0.0000
     64 C          -1.0977    2.3664    6.1116 C.3     1  UNL1        0.0000
     65 C          -2.6150    2.3745    6.3431 C.3     1  UNL1        0.0000
     66 H          -3.1383    1.9734    5.4781 H       1  UNL1        0.0000
     67 H          -2.9889    3.3748    6.5492 H       1  UNL1        0.0000
     68 H          -2.8506    1.7524    7.2050 H       1  UNL1        0.0000
     69 C          -0.6405    0.9047    6.1571 C.3     1  UNL1        0.0000
     70 H          -1.1884    0.3218    5.4186 H       1  UNL1        0.0000
     71 H          -0.8306    0.4798    7.1416 H       1  UNL1        0.0000
     72 H           0.4202    0.8297    5.9390 H       1  UNL1        0.0000
     73 C          -0.4309    3.1580    7.2460 C.3     1  UNL1        0.0000
     74 H           0.6474    3.1636    7.1180 H       1  UNL1        0.0000
     75 H          -0.6639    2.7135    8.2122 H       1  UNL1        0.0000
     76 H          -0.7855    4.1880    7.2445 H       1  UNL1        0.0000
     77 C          -1.5448    3.9502    4.1842 C.ar    1  UNL1        0.0000
     78 H          -2.4778    4.1769    4.6710 H       1  UNL1        0.0000
     79 C          -1.2541    4.6051    2.9949 C.ar    1  UNL1        0.0000
     80 C          -2.2484    5.6172    2.4407 C.3     1  UNL1        0.0000
     81 C          -1.7892    6.2268    1.1135 C.3     1  UNL1        0.0000
     82 H          -0.8470    6.7572    1.2312 H       1  UNL1        0.0000
     83 H          -2.5351    6.9371    0.7600 H       1  UNL1        0.0000
     84 H          -1.6687    5.4569    0.3556 H       1  UNL1        0.0000
     85 C          -3.5986    4.9273    2.2022 C.3     1  UNL1        0.0000
     86 H          -4.3135    5.6296    1.7767 H       1  UNL1        0.0000
     87 H          -4.0125    4.5386    3.1283 H       1  UNL1        0.0000
     88 H          -3.4744    4.0967    1.5109 H       1  UNL1        0.0000
     89 C          -2.4259    6.7606    3.4511 C.3     1  UNL1        0.0000
     90 H          -1.4789    7.2746    3.6082 H       1  UNL1        0.0000
     91 H          -2.7757    6.3877    4.4100 H       1  UNL1        0.0000
     92 H          -3.1510    7.4833    3.0812 H       1  UNL1        0.0000
     93 C          -0.0512    4.3125    2.3616 C.ar    1  UNL1        0.0000
     94 H           0.2399    4.7634    1.4273 H       1  UNL1        0.0000
     95 B           5.3636    0.3050    3.0136 B       1  UNL1        0.0000
     96 H           6.2227   -0.4575    2.7626 H       1  UNL1        0.0000
@<TRIPOS>BOND
     1    39    37    1
     2    23    22    1
     3    40    37    1
     4    84    81    1
     5    37    38    1
     6    37    31    1
     7    25    22    1
     8    35    33    1
     9    36    33    1
    10    83    81    1
    11    19    18    1
    12    22    24    1
    13    22    16    1
    14    20    18    1
    15    28    26    1
    16    81    82    1
    17    81    80    1
    18    33    32    1
    19    33    34    1
    20    31    32    2
    21    31    30    1
    22    94    93    1
    23    18    17    1
    24    18    21    1
    25    88    85    1
    26    16    17    2
    27    16    15    1
    28    12    11    1
    29    32     7    1
    30    14    11    1
    31    86    85    1
    32    17     5    1
    33    26    27    1
    34    26    30    1
    35    26    29    1
    36    30     6    1
    37    15    11    1
    38    15     4    1
    39    11    13    1
    40    85    80    1
    41    85    87    1
    42    93    61   ar
    43    93    79   ar
    44     7     6    1
    45     7    95    1
    46     2    61    1
    47     2     1    1
    48    80    79    1
    49    80    89    1
    50     5     4    1
    51     5    95    1
    52     6     1    1
    53     4     1    1
    54    96    95    1
    55    61    62   ar
    56    79    77   ar
    57    95     9    1
    58    92    89    1
    59    89    90    1
    60    89    91    1
    61     1    10    1
    62     1     3    1
    63     1     8    1
    64    62     3    1
    65    62    63   ar
    66    77    78    1
    67    77    63   ar
    68    10    56    1
    69     9     8    1
    70     9    47    1
    71    60    57    1
    72    49    48    1
    73    63    64    1
    74    56    57    1
    75    50    48    1
    76    59    57    1
    77     8    45    1
    78    57    58    1
    79    48    47    1
    80    48    51    1
    81    70    69    1
    82    66    65    1
    83    47    46    2
    84    72    69    1
    85    64    69    1
    86    64    65    1
    87    64    73    1
    88    69    71    1
    89    45    46    1
    90    45    41    1
    91    65    67    1
    92    65    68    1
    93    42    41    1
    94    46    52    1
    95    74    73    1
    96    41    43    1
    97    41    44    1
    98    76    73    1
    99    73    75    1
   100    52    54    1
   101    52    55    1
   102    52    53    1
