@<TRIPOS>MOLECULE
CSD_code = KARDIT | q = 0 | S = 0 | Stoichiometry = C34H38CoN3O2 | MND = 4
 78 83 0 0 0
SMALL
GASTEIGER

@<TRIPOS>ATOM
      1 CO          9.2886    3.8979   10.5999 Co.oh   1  UNL1        0.0000
      2 N          10.4766    4.8904    9.5227 N.pl3   1  UNL1        0.0000
      3 N          10.1151    4.6877   11.8851 N.pl3   1  UNL1        0.0000
      4 N           8.3058    3.1147   12.0310 N.pl3   1  UNL1        0.0000
      5 O           8.3885    3.0083    9.3847 O.3     1  UNL1        0.0000
      6 O           7.7761    2.2250    3.9722 O.3     1  UNL1        0.0000
      7 C          11.3154    5.6436   10.1943 C.3     1  UNL1        0.0000
      8 C          11.1360    5.5535   11.6094 C.2     1  UNL1        0.0000
      9 C          11.8243    6.1945   12.6327 C.2     1  UNL1        0.0000
     10 H          12.6284    6.8748   12.4001 H       1  UNL1        0.0000
     11 C          11.4645    5.9482   13.9504 C.2     1  UNL1        0.0000
     12 H          11.9887    6.4392   14.7556 H       1  UNL1        0.0000
     13 C          10.4274    5.0658   14.2311 C.2     1  UNL1        0.0000
     14 H          10.1389    4.8644   15.2507 H       1  UNL1        0.0000
     15 C           9.7643    4.4430   13.1828 C.2     1  UNL1        0.0000
     16 C           8.6825    3.5030   13.2200 C.2     1  UNL1        0.0000
     17 C          10.5080    4.8808    8.1130 C.ar    1  UNL1        0.0000
     18 C           9.7490    5.8112    7.3979 C.ar    1  UNL1        0.0000
     19 C           9.7413    5.7453    6.0156 C.ar    1  UNL1        0.0000
     20 H           9.1471    6.4556    5.4586 H       1  UNL1        0.0000
     21 C          10.4613    4.7769    5.3301 C.ar    1  UNL1        0.0000
     22 C          11.2111    3.8674    6.0601 C.ar    1  UNL1        0.0000
     23 H          11.7743    3.1040    5.5419 H       1  UNL1        0.0000
     24 C          11.2468    3.9026    7.4443 C.ar    1  UNL1        0.0000
     25 C           7.2592    2.1893   11.8644 C.ar    1  UNL1        0.0000
     26 C           5.9531    2.6497   11.6770 C.ar    1  UNL1        0.0000
     27 C           4.9420    1.7264   11.4742 C.ar    1  UNL1        0.0000
     28 H           3.9301    2.0773   11.3270 H       1  UNL1        0.0000
     29 C           5.1994    0.3621   11.4447 C.ar    1  UNL1        0.0000
     30 C           6.5067   -0.0706   11.6077 C.ar    1  UNL1        0.0000
     31 H           6.7262   -1.1284   11.5658 H       1  UNL1        0.0000
     32 C           7.5453    0.8234   11.8132 C.ar    1  UNL1        0.0000
     33 C           8.2662    2.8115    8.0922 C.ar    1  UNL1        0.0000
     34 C           7.4583    3.6401    7.2973 C.ar    1  UNL1        0.0000
     35 H           6.9532    4.4716    7.7662 H       1  UNL1        0.0000
     36 C           7.3114    3.4077    5.9501 C.ar    1  UNL1        0.0000
     37 H           6.6987    4.0553    5.3416 H       1  UNL1        0.0000
     38 C           7.9588    2.3390    5.3361 C.ar    1  UNL1        0.0000
     39 C           8.7299    1.4862    6.1110 C.ar    1  UNL1        0.0000
     40 H           9.2317    0.6354    5.6754 H       1  UNL1        0.0000
     41 C           8.8755    1.7184    7.4654 C.ar    1  UNL1        0.0000
     42 H           9.4787    1.0509    8.0635 H       1  UNL1        0.0000
     43 C          12.3628    6.5113    9.5719 C.3     1  UNL1        0.0000
     44 H          12.3419    6.4229    8.4884 H       1  UNL1        0.0000
     45 H          13.3491    6.2217    9.9326 H       1  UNL1        0.0000
     46 H          12.2002    7.5533    9.8464 H       1  UNL1        0.0000
     47 C           8.0688    3.0354   14.5019 C.3     1  UNL1        0.0000
     48 H           7.2652    2.3295   14.3061 H       1  UNL1        0.0000
     49 H           7.6699    3.8836   15.0575 H       1  UNL1        0.0000
     50 H           8.8219    2.5535   15.1247 H       1  UNL1        0.0000
     51 C           8.9473    6.8388    8.1378 C.3     1  UNL1        0.0000
     52 H           8.2230    7.3090    7.4778 H       1  UNL1        0.0000
     53 H           9.5946    7.6136    8.5507 H       1  UNL1        0.0000
     54 H           8.4221    6.3668    8.9712 H       1  UNL1        0.0000
     55 C          10.3889    4.6956    3.8361 C.3     1  UNL1        0.0000
     56 H          10.3570    5.6888    3.3928 H       1  UNL1        0.0000
     57 H           9.4792    4.1697    3.5464 H       1  UNL1        0.0000
     58 H          11.2416    4.1548    3.4316 H       1  UNL1        0.0000
     59 C          12.0475    2.9137    8.2347 C.3     1  UNL1        0.0000
     60 H          11.4484    2.5380    9.0676 H       1  UNL1        0.0000
     61 H          12.9385    3.3840    8.6533 H       1  UNL1        0.0000
     62 H          12.3559    2.0798    7.6098 H       1  UNL1        0.0000
     63 C           5.6857    4.1233   11.6761 C.3     1  UNL1        0.0000
     64 H           5.8122    4.5433   12.6747 H       1  UNL1        0.0000
     65 H           4.6755    4.3337   11.3348 H       1  UNL1        0.0000
     66 H           6.4006    4.6176   11.0139 H       1  UNL1        0.0000
     67 C           4.0798   -0.6151   11.2443 C.3     1  UNL1        0.0000
     68 H           3.4984   -0.7148   12.1618 H       1  UNL1        0.0000
     69 H           4.4633   -1.5960   10.9753 H       1  UNL1        0.0000
     70 H           3.4082   -0.2732   10.4593 H       1  UNL1        0.0000
     71 C           8.9629    0.3607   11.9552 C.3     1  UNL1        0.0000
     72 H           9.0546   -0.6909   11.6963 H       1  UNL1        0.0000
     73 H           9.3190    0.5005   12.9766 H       1  UNL1        0.0000
     74 H           9.6027    0.9518   11.2959 H       1  UNL1        0.0000
     75 C           8.4049    1.1584    3.3152 C.3     1  UNL1        0.0000
     76 H           9.4953    1.2054    3.4187 H       1  UNL1        0.0000
     77 H           8.1408    1.2585    2.2626 H       1  UNL1        0.0000
     78 H           8.0507    0.1889    3.6835 H       1  UNL1        0.0000
@<TRIPOS>BOND
     1    77    75    1
     2    75    76    1
     3    75    78    1
     4    75     6    1
     5    56    55    1
     6    58    55    1
     7    57    55    1
     8    55    21    1
     9     6    38    1
    10    21    19   ar
    11    21    22   ar
    12    38    36   ar
    13    38    39   ar
    14    37    36    1
    15    20    19    1
    16    23    22    1
    17    40    39    1
    18    36    34   ar
    19    19    18   ar
    20    22    24   ar
    21    39    41   ar
    22    34    35    1
    23    34    33   ar
    24    18    17   ar
    25    18    51    1
    26    24    17   ar
    27    24    59    1
    28    41    42    1
    29    41    33   ar
    30    52    51    1
    31    62    59    1
    32    33     5    1
    33    17     2    1
    34    51    53    1
    35    51    54    1
    36    59    61    1
    37    59    60    1
    38    44    43    1
    39     5     1    1
    40     2     7    1
    41     2     1    1
    42    43    46    1
    43    43    45    1
    44    43     7    1
    45     7     8    1
    46    70    67    1
    47     1     3    1
    48     1     4    1
    49    69    67    1
    50    66    63    1
    51    67    29    1
    52    67    68    1
    53    74    71    1
    54    28    27    1
    55    65    63    1
    56    29    27   ar
    57    29    30   ar
    58    27    26   ar
    59    31    30    1
    60    30    32   ar
    61     8     3    1
    62     8     9    2
    63    63    26    1
    64    63    64    1
    65    26    25   ar
    66    72    71    1
    67    32    25   ar
    68    32    71    1
    69    25     4    1
    70     3    15    1
    71    71    73    1
    72     4    16    1
    73    10     9    1
    74     9    11    1
    75    15    16    2
    76    15    13    1
    77    16    47    1
    78    11    13    2
    79    11    12    1
    80    13    14    1
    81    48    47    1
    82    47    49    1
    83    47    50    1
