@<TRIPOS>MOLECULE
CSD_code = KAWJEY | q = 0 | S = 0 | Stoichiometry = C18H23CoN12 | MND = 6
 54 57 0 0 0
SMALL
GASTEIGER

@<TRIPOS>ATOM
      1 CO          1.9750   13.3876    4.5538 Co.oh   1  UNL1        0.0000
      2 N           0.5425   13.7348    3.3791 N.pl3   1  UNL1        0.0000
      3 N           2.4318   12.1178    3.3442 N.pl3   1  UNL1        0.0000
      4 N           3.6769   12.6351    5.6770 N.4     1  UNL1        0.0000
      5 N           1.5562   14.5926    5.8753 N.2     1  UNL1        0.0000
      6 N           0.5906   14.9835    6.4095 N.2     1  UNL1        0.0000
      7 N          -0.2639   15.4554    6.9883 N.2     1  UNL1        0.0000
      8 N           3.0265   14.6800    3.6830 N.2     1  UNL1        0.0000
      9 N           2.8460   15.2469    2.6749 N.2     1  UNL1        0.0000
     10 N           2.7874   15.8331    1.7032 N.2     1  UNL1        0.0000
     11 N           0.8941   12.0857    5.4417 N.2     1  UNL1        0.0000
     12 N           0.1174   11.3633    4.9501 N.2     1  UNL1        0.0000
     13 N          -0.6311   10.6135    4.5360 N.2     1  UNL1        0.0000
     14 C           0.4818   12.8167    2.3816 C.2     1  UNL1        0.0000
     15 C          -0.5145   12.8554    1.4066 C.2     1  UNL1        0.0000
     16 H          -0.5189   12.1058    0.6314 H       1  UNL1        0.0000
     17 C          -1.4639   13.8537    1.4559 C.2     1  UNL1        0.0000
     18 H          -2.2486   13.9035    0.7174 H       1  UNL1        0.0000
     19 C          -1.3815   14.8006    2.4705 C.2     1  UNL1        0.0000
     20 H          -2.0951   15.6044    2.5441 H       1  UNL1        0.0000
     21 C          -0.3654   14.7072    3.4028 C.2     1  UNL1        0.0000
     22 H          -0.2885   15.4388    4.1938 H       1  UNL1        0.0000
     23 C           1.6194   10.7271    1.4766 C.ar    1  UNL1        0.0000
     24 C           2.6723   10.5868    0.5772 C.ar    1  UNL1        0.0000
     25 H           3.4560   11.3298    0.5492 H       1  UNL1        0.0000
     26 C           2.6945    9.5155   -0.2977 C.ar    1  UNL1        0.0000
     27 H           3.5083    9.4154   -1.0000 H       1  UNL1        0.0000
     28 C           1.6773    8.5757   -0.2722 C.ar    1  UNL1        0.0000
     29 H           1.6997    7.7391   -0.9542 H       1  UNL1        0.0000
     30 C           0.6328    8.7080    0.6290 C.ar    1  UNL1        0.0000
     31 H          -0.1570    7.9728    0.6548 H       1  UNL1        0.0000
     32 C           0.5955    9.7817    1.4996 C.ar    1  UNL1        0.0000
     33 H          -0.2028    9.8810    2.2219 H       1  UNL1        0.0000
     34 C           1.5661   11.8623    2.4121 C.2     1  UNL1        0.0000
     35 C           3.6054   11.3245    3.5788 C.3     1  UNL1        0.0000
     36 H           4.4538   11.8078    3.0803 H       1  UNL1        0.0000
     37 H           3.4987   10.3087    3.1784 H       1  UNL1        0.0000
     38 C           3.8296   11.2906    5.0921 C.3     1  UNL1        0.0000
     39 H           3.0695   10.6422    5.5341 H       1  UNL1        0.0000
     40 H           4.8204   10.8715    5.3080 H       1  UNL1        0.0000
     41 C           4.9265   13.3964    5.4719 C.3     1  UNL1        0.0000
     42 H           5.0518   13.5404    4.3983 H       1  UNL1        0.0000
     43 H           5.7747   12.8010    5.8372 H       1  UNL1        0.0000
     44 C           4.9401   14.7678    6.1315 C.3     1  UNL1        0.0000
     45 H           5.7757   15.3397    5.7360 H       1  UNL1        0.0000
     46 H           5.0539   14.7034    7.2098 H       1  UNL1        0.0000
     47 H           4.0203   15.2942    5.8970 H       1  UNL1        0.0000
     48 C           3.3531   12.5234    7.1140 C.3     1  UNL1        0.0000
     49 H           2.4097   11.9804    7.1926 H       1  UNL1        0.0000
     50 H           3.1756   13.5311    7.4860 H       1  UNL1        0.0000
     51 C           4.4025   11.8312    7.9818 C.3     1  UNL1        0.0000
     52 H           4.0282   11.7947    9.0017 H       1  UNL1        0.0000
     53 H           5.3448   12.3720    7.9937 H       1  UNL1        0.0000
     54 H           4.5871   10.8097    7.6586 H       1  UNL1        0.0000
@<TRIPOS>BOND
     1    27    26    1
     2    29    28    1
     3    26    28   ar
     4    26    24   ar
     5    28    30   ar
     6    25    24    1
     7    24    23   ar
     8    30    31    1
     9    30    32   ar
    10    16    15    1
    11    18    17    1
    12    15    17    2
    13    15    14    1
    14    17    19    1
    15    23    32   ar
    16    23    34    1
    17    32    33    1
    18    10     9    2
    19    14    34    2
    20    14     2    1
    21    34     3    1
    22    19    20    1
    23    19    21    2
    24     9     8    2
    25    36    35    1
    26    37    35    1
    27     3    35    1
    28     3     1    1
    29     2    21    1
    30     2     1    1
    31    21    22    1
    32    35    38    1
    33     8     1    1
    34    42    41    1
    35    13    12    2
    36     1    11    1
    37     1     4    1
    38     1     5    1
    39    12    11    2
    40    38    40    1
    41    38    39    1
    42    38     4    1
    43    41     4    1
    44    41    43    1
    45    41    44    1
    46     4    48    1
    47    45    44    1
    48     5     6    2
    49    47    44    1
    50    44    46    1
    51     6     7    2
    52    48    49    1
    53    48    50    1
    54    48    51    1
    55    54    51    1
    56    51    53    1
    57    51    52    1
