@<TRIPOS>MOLECULE
CSD_code = KEHNER | q = 1 | S = 0 | Stoichiometry = C26H26CoN4O2(1+) | MND = 6
 59 66 0 0 0
SMALL
GASTEIGER

@<TRIPOS>ATOM
      1 CO          5.0721    2.1217    0.0000 Co.oh   1  UNL1        0.0000
      2 N           3.7036    3.4898   -0.2448 N.pl3   1  UNL1        0.0000
      3 C           2.5908    3.4250   -0.9749 C.3     1  UNL1        0.0000
      4 C           1.5509    4.3278   -0.8573 C.2     1  UNL1        0.0000
      5 C           1.6549    5.3578    0.0638 C.2     1  UNL1        0.0000
      6 C           2.8145    5.4443    0.8117 C.2     1  UNL1        0.0000
      7 C           3.8123    4.4979    0.6307 C.2     1  UNL1        0.0000
      8 C           5.1081    4.5395    1.3709 C.3     1  UNL1        0.0000
      9 N           5.5403    3.1585    1.6206 N.4     1  UNL1        0.0000
     10 C           4.9726    2.6259    2.8769 C.3     1  UNL1        0.0000
     11 C           3.4789    2.4962    2.7935 C.ar    1  UNL1        0.0000
     12 C           2.6341    3.1333    3.6846 C.ar    1  UNL1        0.0000
     13 C           1.2632    2.9623    3.6055 C.ar    1  UNL1        0.0000
     14 C           0.7350    2.1356    2.6263 C.ar    1  UNL1        0.0000
     15 C           1.5593    1.5126    1.7137 C.ar    1  UNL1        0.0000
     16 C           2.9516    1.6794    1.7713 C.ar    1  UNL1        0.0000
     17 O           3.7289    1.0992    0.8830 O.3     1  UNL1        0.0000
     18 H           6.5541    3.1908    1.7248 H       1  UNL1        0.0000
     19 H           2.5024    2.6239   -1.6925 H       1  UNL1        0.0000
     20 H           0.6749    4.2179   -1.4752 H       1  UNL1        0.0000
     21 H           0.8572    6.0715    0.1928 H       1  UNL1        0.0000
     22 H           2.9511    6.2304    1.5366 H       1  UNL1        0.0000
     23 H           5.0232    5.1113    2.3010 H       1  UNL1        0.0000
     24 H           5.8474    5.0157    0.7181 H       1  UNL1        0.0000
     25 H           5.2457    3.2759    3.7170 H       1  UNL1        0.0000
     26 H           5.4087    1.6347    3.0419 H       1  UNL1        0.0000
     27 H           3.0535    3.7599    4.4595 H       1  UNL1        0.0000
     28 H           0.6136    3.4602    4.3074 H       1  UNL1        0.0000
     29 H          -0.3323    1.9850    2.5679 H       1  UNL1        0.0000
     30 H           1.1510    0.8672    0.9503 H       1  UNL1        0.0000
     31 N           6.4406    0.7536    0.2448 N.pl3   1  UNL1        0.0000
     32 C           7.5534    0.8183    0.9749 C.3     1  UNL1        0.0000
     33 C           8.5933   -0.0846    0.8573 C.2     1  UNL1        0.0000
     34 C           8.4892   -1.1145   -0.0639 C.2     1  UNL1        0.0000
     35 C           7.3296   -1.2010   -0.8117 C.2     1  UNL1        0.0000
     36 C           6.3318   -0.2546   -0.6307 C.2     1  UNL1        0.0000
     37 C           5.0361   -0.2961   -1.3709 C.3     1  UNL1        0.0000
     38 N           4.6039    1.0849   -1.6206 N.4     1  UNL1        0.0000
     39 C           5.1716    1.6175   -2.8769 C.3     1  UNL1        0.0000
     40 C           6.6654    1.7472   -2.7934 C.ar    1  UNL1        0.0000
     41 C           7.5101    1.1101   -3.6846 C.ar    1  UNL1        0.0000
     42 C           8.8811    1.2811   -3.6055 C.ar    1  UNL1        0.0000
     43 C           9.4092    2.1078   -2.6263 C.ar    1  UNL1        0.0000
     44 C           8.5849    2.7308   -1.7136 C.ar    1  UNL1        0.0000
     45 C           7.1927    2.5639   -1.7713 C.ar    1  UNL1        0.0000
     46 O           6.4153    3.1442   -0.8829 O.3     1  UNL1        0.0000
     47 H           3.5901    1.0527   -1.7248 H       1  UNL1        0.0000
     48 H           7.6419    1.6193    1.6925 H       1  UNL1        0.0000
     49 H           9.4693    0.0253    1.4752 H       1  UNL1        0.0000
     50 H           9.2869   -1.8283   -0.1929 H       1  UNL1        0.0000
     51 H           7.1930   -1.9871   -1.5366 H       1  UNL1        0.0000
     52 H           5.1209   -0.8679   -2.3010 H       1  UNL1        0.0000
     53 H           4.2968   -0.7723   -0.7181 H       1  UNL1        0.0000
     54 H           4.8985    0.9676   -3.7170 H       1  UNL1        0.0000
     55 H           4.7355    2.6087   -3.0419 H       1  UNL1        0.0000
     56 H           7.0907    0.4835   -4.4595 H       1  UNL1        0.0000
     57 H           9.5306    0.7832   -4.3074 H       1  UNL1        0.0000
     58 H          10.4766    2.2584   -2.5679 H       1  UNL1        0.0000
     59 H           8.9933    3.3761   -0.9503 H       1  UNL1        0.0000
@<TRIPOS>BOND
     1    56    41    1
     2    57    42    1
     3    54    39    1
     4    41    42   ar
     5    41    40   ar
     6    42    43   ar
     7    55    39    1
     8    39    40    1
     9    39    38    1
    10    40    45   ar
    11    43    58    1
    12    43    44   ar
    13    52    37    1
    14    45    44   ar
    15    45    46    1
    16    47    38    1
    17    44    59    1
    18    19     3    1
    19    38    37    1
    20    38     1    1
    21    51    35    1
    22    20     4    1
    23    37    53    1
    24    37    36    1
    25     3     4    1
    26     3     2    1
    27    46     1    1
    28     4     5    2
    29    35    36    2
    30    35    34    1
    31    36    31    1
    32     2     1    1
    33     2     7    1
    34    50    34    1
    35    34    33    2
    36     1    31    1
    37     1    17    1
    38     1     9    1
    39     5    21    1
    40     5     6    1
    41    31    32    1
    42     7     6    2
    43     7     8    1
    44    24     8    1
    45     6    22    1
    46    33    32    1
    47    33    49    1
    48    17    16    1
    49    30    15    1
    50    32    48    1
    51     8     9    1
    52     8    23    1
    53     9    18    1
    54     9    10    1
    55    15    16   ar
    56    15    14   ar
    57    16    11   ar
    58    29    14    1
    59    14    13   ar
    60    11    10    1
    61    11    12   ar
    62    10    26    1
    63    10    25    1
    64    13    12   ar
    65    13    28    1
    66    12    27    1
