@<TRIPOS>MOLECULE
CSD_code = KEHNOB | q = 1 | S = 0 | Stoichiometry = C26H22Cl4CoN4O2(1+) | MND = 6
 59 66 0 0 0
SMALL
GASTEIGER

@<TRIPOS>ATOM
      1 CO         11.1872  -11.3907    0.0001 Co.oh   1  UNL1        0.0000
      2 N          12.9884  -10.7170   -0.3343 N.pl3   1  UNL1        0.0000
      3 C          13.4665   -9.4910   -0.1240 C.3     1  UNL1        0.0000
      4 C          14.8159   -9.1905   -0.1451 C.2     1  UNL1        0.0000
      5 C          15.7271  -10.2033   -0.3968 C.2     1  UNL1        0.0000
      6 C          15.2368  -11.4744   -0.6362 C.2     1  UNL1        0.0000
      7 C          13.8679  -11.6930   -0.5975 C.2     1  UNL1        0.0000
      8 C          13.2540  -13.0274   -0.8682 C.3     1  UNL1        0.0000
      9 N          12.0604  -13.1693   -0.0225 N.4     1  UNL1        0.0000
     10 C          12.3896  -13.7239    1.3088 C.3     1  UNL1        0.0000
     11 C          13.2351  -12.7648    2.0988 C.ar    1  UNL1        0.0000
     12 C          14.4936  -13.0939    2.5654 C.ar    1  UNL1        0.0000
     13 C          15.2386  -12.1618    3.2730 C.ar    1  UNL1        0.0000
     14 C          14.7380  -10.8879    3.5057 C.ar    1  UNL1        0.0000
     15 C          13.4922  -10.5579    3.0152 C.ar    1  UNL1        0.0000
     16 C          12.6905  -11.4810    2.3149 C.ar    1  UNL1        0.0000
     17 O          11.5193  -11.1402    1.8515 O.3     1  UNL1        0.0000
     18 CL         16.8132  -12.5753    3.8399 Cl      1  UNL1        0.0000
     19 CL         12.8772   -8.9604    3.2218 Cl      1  UNL1        0.0000
     20 H          12.7636   -8.6989    0.0810 H       1  UNL1        0.0000
     21 H          15.1397   -8.1796    0.0402 H       1  UNL1        0.0000
     22 H          16.7874  -10.0080   -0.4073 H       1  UNL1        0.0000
     23 H          15.9024  -12.2960   -0.8458 H       1  UNL1        0.0000
     24 H          13.9674  -13.8407   -0.7009 H       1  UNL1        0.0000
     25 H          12.9306  -13.0400   -1.9146 H       1  UNL1        0.0000
     26 H          11.4557  -13.8399   -0.4975 H       1  UNL1        0.0000
     27 H          12.9103  -14.6817    1.2005 H       1  UNL1        0.0000
     28 H          11.4475  -13.8893    1.8412 H       1  UNL1        0.0000
     29 H          14.9007  -14.0778    2.3910 H       1  UNL1        0.0000
     30 H          15.3224  -10.1605    4.0458 H       1  UNL1        0.0000
     31 N           9.3859  -12.0644    0.3343 N.pl3   1  UNL1        0.0000
     32 C           8.9078  -13.2903    0.1239 C.3     1  UNL1        0.0000
     33 C           7.5584  -13.5909    0.1450 C.2     1  UNL1        0.0000
     34 C           6.6472  -12.5780    0.3968 C.2     1  UNL1        0.0000
     35 C           7.1376  -11.3069    0.6362 C.2     1  UNL1        0.0000
     36 C           8.5065  -11.0883    0.5975 C.2     1  UNL1        0.0000
     37 C           9.1204   -9.7540    0.8682 C.3     1  UNL1        0.0000
     38 N          10.3140   -9.6121    0.0226 N.4     1  UNL1        0.0000
     39 C           9.9849   -9.0575   -1.3088 C.3     1  UNL1        0.0000
     40 C           9.1394  -10.0165   -2.0987 C.ar    1  UNL1        0.0000
     41 C           7.8809   -9.6873   -2.5654 C.ar    1  UNL1        0.0000
     42 C           7.1359  -10.6194   -3.2731 C.ar    1  UNL1        0.0000
     43 C           7.6365  -11.8933   -3.5057 C.ar    1  UNL1        0.0000
     44 C           8.8822  -12.2234   -3.0152 C.ar    1  UNL1        0.0000
     45 C           9.6839  -11.3003   -2.3148 C.ar    1  UNL1        0.0000
     46 O          10.8551  -11.6412   -1.8513 O.3     1  UNL1        0.0000
     47 CL          5.5613  -10.2058   -3.8400 Cl      1  UNL1        0.0000
     48 CL          9.4971  -13.8209   -3.2218 Cl      1  UNL1        0.0000
     49 H           9.6108  -14.0825   -0.0810 H       1  UNL1        0.0000
     50 H           7.2346  -14.6017   -0.0403 H       1  UNL1        0.0000
     51 H           5.5869  -12.7732    0.4071 H       1  UNL1        0.0000
     52 H           6.4719  -10.4853    0.8456 H       1  UNL1        0.0000
     53 H           8.4070   -8.9407    0.7009 H       1  UNL1        0.0000
     54 H           9.4438   -9.7414    1.9146 H       1  UNL1        0.0000
     55 H          10.9187   -8.9415    0.4976 H       1  UNL1        0.0000
     56 H           9.4642   -8.0996   -1.2004 H       1  UNL1        0.0000
     57 H          10.9270   -8.8920   -1.8411 H       1  UNL1        0.0000
     58 H           7.4738   -8.7034   -2.3910 H       1  UNL1        0.0000
     59 H           7.0521  -12.6207   -4.0459 H       1  UNL1        0.0000
@<TRIPOS>BOND
     1    59    43    1
     2    47    42    1
     3    43    42   ar
     4    43    44   ar
     5    42    41   ar
     6    48    44    1
     7    44    45   ar
     8    41    58    1
     9    41    40   ar
    10    45    40   ar
    11    45    46    1
    12    40    39    1
    13    25     8    1
    14    46     1    1
    15    57    39    1
    16    39    56    1
    17    39    38    1
    18     8    24    1
    19     8     7    1
    20     8     9    1
    21    23     6    1
    22     6     7    2
    23     6     5    1
    24     7     2    1
    25    26     9    1
    26    22     5    1
    27     5     4    2
    28     2     3    1
    29     2     1    1
    30     4     3    1
    31     4    21    1
    32     3    20    1
    33    49    32    1
    34    50    33    1
    35     9     1    1
    36     9    10    1
    37     1    38    1
    38     1    31    1
    39     1    17    1
    40    38    55    1
    41    38    37    1
    42    32    33    1
    43    32    31    1
    44    33    34    2
    45    31    36    1
    46    34    51    1
    47    34    35    1
    48    36    35    2
    49    36    37    1
    50    35    52    1
    51    53    37    1
    52    37    54    1
    53    27    10    1
    54    10    28    1
    55    10    11    1
    56    17    16    1
    57    11    16   ar
    58    11    12   ar
    59    16    15   ar
    60    29    12    1
    61    12    13   ar
    62    15    19    1
    63    15    14   ar
    64    13    14   ar
    65    13    18    1
    66    14    30    1
