@<TRIPOS>MOLECULE
CSD_code = KEVHOI | q = -1 | S = 0 | Stoichiometry = C14H6CoN2O4S4(1-) | MND = 6
 31 36 0 0 0
SMALL
GASTEIGER

@<TRIPOS>ATOM
      1 CO          2.1627   13.2757    1.8019 Co.oh   1  UNL1        0.0000
      2 S           3.8000   14.4930    0.7661 S.3     1  UNL1        0.0000
      3 S           0.5543   11.9596    2.7589 S.3     1  UNL1        0.0000
      4 S           0.6044   14.1323    0.3619 S.3     1  UNL1        0.0000
      5 S           3.6949   12.5171    3.3223 S.3     1  UNL1        0.0000
      6 N           2.5348   11.9033    0.6628 N.pl3   1  UNL1        0.0000
      7 N           1.7899   14.6485    2.9401 N.pl3   1  UNL1        0.0000
      8 O           5.1437   13.4417   -1.2001 O.2     1  UNL1        0.0000
      9 O           0.1513    9.5510    1.8578 O.2     1  UNL1        0.0000
     10 O          -0.7120   16.2817    1.0124 O.2     1  UNL1        0.0000
     11 O           4.0684   13.8241    5.5425 O.2     1  UNL1        0.0000
     12 C           4.2650   13.2898   -0.3748 C.2     1  UNL1        0.0000
     13 C           3.4907   12.0232   -0.2684 C.3     1  UNL1        0.0000
     14 C           3.7949   10.9965   -1.1562 C.2     1  UNL1        0.0000
     15 C           3.0964    9.8055   -1.0891 C.2     1  UNL1        0.0000
     16 C           2.1121    9.6857   -0.1261 C.2     1  UNL1        0.0000
     17 C           1.8567   10.7499    0.7324 C.2     1  UNL1        0.0000
     18 C           0.7891   10.5800    1.7554 C.2     1  UNL1        0.0000
     19 C           0.1357   15.4734    1.3352 C.2     1  UNL1        0.0000
     20 C           0.8674   15.5685    2.6278 C.3     1  UNL1        0.0000
     21 C           0.5594   16.6281    3.4747 C.2     1  UNL1        0.0000
     22 C           1.2190   16.7511    4.6832 C.2     1  UNL1        0.0000
     23 C           2.1699   15.7997    5.0014 C.2     1  UNL1        0.0000
     24 C           2.4309   14.7635    4.1110 C.2     1  UNL1        0.0000
     25 C           3.4601   13.7584    4.4927 C.2     1  UNL1        0.0000
     26 H           4.5788   11.1742   -1.8762 H       1  UNL1        0.0000
     27 H           3.3130    8.9941   -1.7677 H       1  UNL1        0.0000
     28 H           1.5202    8.7916   -0.0038 H       1  UNL1        0.0000
     29 H          -0.1967   17.3255    3.1482 H       1  UNL1        0.0000
     30 H           0.9982   17.5648    5.3575 H       1  UNL1        0.0000
     31 H           2.7308   15.8200    5.9232 H       1  UNL1        0.0000
@<TRIPOS>BOND
     1    26    14    1
     2    27    15    1
     3     8    12    2
     4    14    15    2
     5    14    13    1
     6    15    16    1
     7    12    13    1
     8    12     2    1
     9    13     6    1
    10    16    28    1
    11    16    17    2
    12     4    19    1
    13     4     1    1
    14     6    17    1
    15     6     1    1
    16    17    18    1
    17     2     1    1
    18    10    19    2
    19    19    20    1
    20    18     9    2
    21    18     3    1
    22     1     3    1
    23     1     7    1
    24     1     5    1
    25    20     7    1
    26    20    21    1
    27     7    24    1
    28    29    21    1
    29     5    25    1
    30    21    22    2
    31    24    25    1
    32    24    23    2
    33    25    11    2
    34    22    23    1
    35    22    30    1
    36    23    31    1
