@<TRIPOS>MOLECULE
CSD_code = KIMBUF | q = 1 | S = 0 | Stoichiometry = C32H42CoN4O2(1+) | MND = 6
 81 88 0 0 0
SMALL
GASTEIGER

@<TRIPOS>ATOM
      1 CO          2.3348   11.4748   11.6325 Co.oh   1  UNL1        0.0000
      2 O           0.6639   12.2428   11.4984 O.3     1  UNL1        0.0000
      3 N           1.7999    9.8317   10.8598 N.3     1  UNL1        0.0000
      4 N           4.1640   10.5838   11.8546 N.4     1  UNL1        0.0000
      5 H           4.8802   10.8417   11.1742 H       1  UNL1        0.0000
      6 H           4.5577   10.7753   12.7752 H       1  UNL1        0.0000
      7 C          -0.4583   11.5980   11.4460 C.ar    1  UNL1        0.0000
      8 C          -1.6539   12.2950   11.7780 C.ar    1  UNL1        0.0000
      9 C          -2.8703   11.6653   11.6660 C.ar    1  UNL1        0.0000
     10 H          -3.7629   12.2100   11.9358 H       1  UNL1        0.0000
     11 C          -2.9777   10.3421   11.2294 C.ar    1  UNL1        0.0000
     12 H          -3.9476    9.8783   11.1522 H       1  UNL1        0.0000
     13 C          -1.8431    9.6436   10.9204 C.ar    1  UNL1        0.0000
     14 H          -1.9058    8.6134   10.6026 H       1  UNL1        0.0000
     15 C          -0.5703   10.2422   11.0247 C.ar    1  UNL1        0.0000
     16 C           0.5740    9.4546   10.7362 C.3     1  UNL1        0.0000
     17 H           0.3554    8.4513   10.3795 H       1  UNL1        0.0000
     18 C           2.9165    8.9369   10.5824 C.3     1  UNL1        0.0000
     19 H           3.3930    9.2824    9.6513 H       1  UNL1        0.0000
     20 C           2.5892    7.4491   10.4312 C.3     1  UNL1        0.0000
     21 H           2.0810    7.0975   11.3311 H       1  UNL1        0.0000
     22 H           1.9347    7.2899    9.5731 H       1  UNL1        0.0000
     23 C           3.8733    6.6474   10.2206 C.3     1  UNL1        0.0000
     24 H           4.3466    6.9550    9.2855 H       1  UNL1        0.0000
     25 H           3.6221    5.5906   10.1316 H       1  UNL1        0.0000
     26 C           4.8476    6.8488   11.3753 C.3     1  UNL1        0.0000
     27 H           4.3996    6.4847   12.3011 H       1  UNL1        0.0000
     28 H           5.7587    6.2779   11.1967 H       1  UNL1        0.0000
     29 C           5.1880    8.3293   11.5230 C.3     1  UNL1        0.0000
     30 H           5.8646    8.4749   12.3675 H       1  UNL1        0.0000
     31 H           5.6943    8.6756   10.6170 H       1  UNL1        0.0000
     32 C           3.9106    9.1362   11.7368 C.3     1  UNL1        0.0000
     33 H           3.4145    8.8181   12.6588 H       1  UNL1        0.0000
     34 C          -1.5606   13.6990   12.3149 C.3     1  UNL1        0.0000
     35 H          -0.6249   14.1481   11.9745 H       1  UNL1        0.0000
     36 H          -2.4001   14.2975   11.9595 H       1  UNL1        0.0000
     37 C          -1.5651   13.6468   13.8159 C.2     1  UNL1        0.0000
     38 H          -0.7581   13.0753   14.2532 H       1  UNL1        0.0000
     39 C          -2.4770   14.2150   14.5801 C.2     1  UNL1        0.0000
     40 H          -3.2932   14.7851   14.1673 H       1  UNL1        0.0000
     41 H          -2.4422   14.1403   15.6532 H       1  UNL1        0.0000
     42 O           1.8688   10.7675   13.2695 O.3     1  UNL1        0.0000
     43 N           2.9498   13.1137   12.3540 N.3     1  UNL1        0.0000
     44 N           2.7775   12.3006    9.8137 N.4     1  UNL1        0.0000
     45 H           3.6511   12.0004    9.3790 H       1  UNL1        0.0000
     46 H           2.0391   12.1173    9.1352 H       1  UNL1        0.0000
     47 C           1.5636   11.4542   14.3247 C.ar    1  UNL1        0.0000
     48 C           0.7987   10.8227   15.3449 C.ar    1  UNL1        0.0000
     49 C           0.5230   11.4941   16.5121 C.ar    1  UNL1        0.0000
     50 H          -0.0705   10.9991   17.2665 H       1  UNL1        0.0000
     51 C           0.9754   12.7969   16.7372 C.ar    1  UNL1        0.0000
     52 H           0.7444   13.2937   17.6655 H       1  UNL1        0.0000
     53 C           1.6936   13.4354   15.7638 C.ar    1  UNL1        0.0000
     54 H           2.0291   14.4515   15.9105 H       1  UNL1        0.0000
     55 C           1.9944   12.7940   14.5443 C.ar    1  UNL1        0.0000
     56 C           2.6853   13.5273   13.5454 C.3     1  UNL1        0.0000
     57 H           2.9991   14.5227   13.8491 H       1  UNL1        0.0000
     58 C           3.6166   13.9594   11.3717 C.3     1  UNL1        0.0000
     59 H           4.6405   13.5739   11.2432 H       1  UNL1        0.0000
     60 C           3.7020   15.4541   11.6920 C.3     1  UNL1        0.0000
     61 H           4.3005   15.6160   12.5896 H       1  UNL1        0.0000
     62 H           2.6973   15.8445   11.8646 H       1  UNL1        0.0000
     63 C           4.3534   16.2053   10.5312 C.3     1  UNL1        0.0000
     64 H           4.3899   17.2678   10.7710 H       1  UNL1        0.0000
     65 H           5.3814   15.8591   10.4035 H       1  UNL1        0.0000
     66 C           3.5807   15.9965    9.2341 C.3     1  UNL1        0.0000
     67 H           2.5711   16.3966    9.3398 H       1  UNL1        0.0000
     68 H           4.0696   16.5315    8.4201 H       1  UNL1        0.0000
     69 C           3.5057   14.5089    8.9009 C.3     1  UNL1        0.0000
     70 H           4.5164   14.1247    8.7341 H       1  UNL1        0.0000
     71 H           2.9295   14.3590    7.9856 H       1  UNL1        0.0000
     72 C           2.8531   13.7531   10.0546 C.3     1  UNL1        0.0000
     73 H           1.8298   14.1097   10.2066 H       1  UNL1        0.0000
     74 C           0.2436    9.4437   15.1022 C.3     1  UNL1        0.0000
     75 H           0.8170    8.9675   14.3037 H       1  UNL1        0.0000
     76 H           0.3156    8.8409   16.0083 H       1  UNL1        0.0000
     77 C          -1.1920    9.5612   14.6770 C.2     1  UNL1        0.0000
     78 H          -1.3551   10.1411   13.7787 H       1  UNL1        0.0000
     79 C          -2.2087    9.0363   15.3321 C.2     1  UNL1        0.0000
     80 H          -2.0709    8.4593   16.2318 H       1  UNL1        0.0000
     81 H          -3.2231    9.1545   14.9928 H       1  UNL1        0.0000
@<TRIPOS>BOND
     1    71    69    1
     2    68    66    1
     3    70    69    1
     4    69    66    1
     5    69    72    1
     6    46    44    1
     7    66    67    1
     8    66    63    1
     9    24    23    1
    10    45    44    1
    11    22    20    1
    12    19    18    1
    13    44    72    1
    14    44     1    1
    15    72    73    1
    16    72    58    1
    17    25    23    1
    18    23    20    1
    19    23    26    1
    20    17    16    1
    21    65    63    1
    22    20    18    1
    23    20    21    1
    24    63    64    1
    25    63    60    1
    26    18     3    1
    27    18    32    1
    28    14    13    1
    29    31    29    1
    30    16     3    1
    31    16    15    1
    32     3     1    1
    33    13    15   ar
    34    13    11   ar
    35    15     7   ar
    36    12    11    1
    37     5     4    1
    38    28    26    1
    39    11     9   ar
    40    59    58    1
    41    58    60    1
    42    58    43    1
    43    26    29    1
    44    26    27    1
    45     7     2    1
    46     7     8   ar
    47     2     1    1
    48    29    32    1
    49    29    30    1
    50     1     4    1
    51     1    43    1
    52     1    42    1
    53     9     8   ar
    54     9    10    1
    55    60    62    1
    56    60    61    1
    57    32     4    1
    58    32    33    1
    59     8    34    1
    60     4     6    1
    61    36    34    1
    62    35    34    1
    63    34    37    1
    64    43    56    1
    65    42    47    1
    66    56    57    1
    67    56    55    1
    68    78    77    1
    69    37    38    1
    70    37    39    2
    71    40    39    1
    72    75    74    1
    73    47    55   ar
    74    47    48   ar
    75    55    53   ar
    76    39    41    1
    77    77    74    1
    78    77    79    2
    79    81    79    1
    80    74    48    1
    81    74    76    1
    82    79    80    1
    83    48    49   ar
    84    53    54    1
    85    53    51   ar
    86    49    51   ar
    87    49    50    1
    88    51    52    1
