@<TRIPOS>MOLECULE
CSD_code = KIRTUB | q = 0 | S = 0 | Stoichiometry = C18H25CoN12 | MND = 6
 56 59 0 0 0
SMALL
GASTEIGER

@<TRIPOS>ATOM
      1 CO          1.0860   12.5165    1.7161 Co.oh   1  UNL1        0.0000
      2 N           1.1742   13.6118    0.1967 N.2     1  UNL1        0.0000
      3 N           1.4275   13.4109   -0.9287 N.2     1  UNL1        0.0000
      4 N           1.6864   13.3805   -2.0332 N.2     1  UNL1        0.0000
      5 N           0.4888   11.0397    0.7738 N.2     1  UNL1        0.0000
      6 N          -0.5357   10.4807    0.8758 N.2     1  UNL1        0.0000
      7 N          -1.4966    9.8752    0.8734 N.2     1  UNL1        0.0000
      8 C          -3.7549   12.4587    2.3679 C.ar    1  UNL1        0.0000
      9 H          -3.2888   11.4904    2.2471 H       1  UNL1        0.0000
     10 C          -4.9676   12.5689    3.0242 C.ar    1  UNL1        0.0000
     11 H          -5.4414   11.6871    3.4283 H       1  UNL1        0.0000
     12 C          -5.5752   13.8070    3.1567 C.ar    1  UNL1        0.0000
     13 H          -6.5227   13.8930    3.6674 H       1  UNL1        0.0000
     14 C          -4.9702   14.9332    2.6259 C.ar    1  UNL1        0.0000
     15 H          -5.4445   15.8989    2.7208 H       1  UNL1        0.0000
     16 C          -3.7553   14.8242    1.9706 C.ar    1  UNL1        0.0000
     17 H          -3.2890   15.7044    1.5504 H       1  UNL1        0.0000
     18 C          -3.1395   13.5873    1.8369 C.ar    1  UNL1        0.0000
     19 C          -1.7965   13.4412    1.1705 C.3     1  UNL1        0.0000
     20 H          -1.8036   12.5502    0.5405 H       1  UNL1        0.0000
     21 H          -1.5643   14.3010    0.5390 H       1  UNL1        0.0000
     22 N          -0.7259   13.2979    2.1764 N.4     1  UNL1        0.0000
     23 H          -1.0535   12.6040    2.8552 H       1  UNL1        0.0000
     24 C          -0.5107   14.5594    2.9053 C.3     1  UNL1        0.0000
     25 H          -1.3533   14.7796    3.5705 H       1  UNL1        0.0000
     26 H          -0.4354   15.3598    2.1629 H       1  UNL1        0.0000
     27 C           0.7991   14.4882    3.6886 C.3     1  UNL1        0.0000
     28 H           1.0227   15.4547    4.1591 H       1  UNL1        0.0000
     29 H           0.7297   13.7223    4.4648 H       1  UNL1        0.0000
     30 N           1.8195   14.0823    2.7308 N.4     1  UNL1        0.0000
     31 H           1.9294   14.8274    2.0417 H       1  UNL1        0.0000
     32 C           3.1379   13.7234    3.2389 C.3     1  UNL1        0.0000
     33 H           3.0147   13.0290    4.0746 H       1  UNL1        0.0000
     34 H           3.7053   14.5947    3.5917 H       1  UNL1        0.0000
     35 C           3.8668   13.0324    2.0857 C.3     1  UNL1        0.0000
     36 H           4.0192   13.7488    1.2721 H       1  UNL1        0.0000
     37 H           4.8461   12.6574    2.4059 H       1  UNL1        0.0000
     38 N           3.0226   11.9399    1.5743 N.4     1  UNL1        0.0000
     39 H           3.0802   11.1768    2.2542 H       1  UNL1        0.0000
     40 C           3.5573   11.3670    0.3248 C.3     1  UNL1        0.0000
     41 H           3.6754   12.1615   -0.4144 H       1  UNL1        0.0000
     42 H           2.8126   10.6596   -0.0511 H       1  UNL1        0.0000
     43 C           4.8677   10.6648    0.5696 C.ar    1  UNL1        0.0000
     44 C           4.9086    9.5575    1.4110 C.ar    1  UNL1        0.0000
     45 H           3.9981    9.1828    1.8587 H       1  UNL1        0.0000
     46 C           6.1079    8.9195    1.6702 C.ar    1  UNL1        0.0000
     47 H           6.1271    8.0608    2.3241 H       1  UNL1        0.0000
     48 C           7.2785    9.3785    1.0887 C.ar    1  UNL1        0.0000
     49 H           8.2142    8.8786    1.2890 H       1  UNL1        0.0000
     50 C           7.2446   10.4760    0.2461 C.ar    1  UNL1        0.0000
     51 H           8.1537   10.8346   -0.2134 H       1  UNL1        0.0000
     52 C           6.0450   11.1189   -0.0086 C.ar    1  UNL1        0.0000
     53 H           6.0204   11.9741   -0.6686 H       1  UNL1        0.0000
     54 N           0.9133   11.5506    3.3521 N.2     1  UNL1        0.0000
     55 N           1.4570   10.5901    3.7428 N.2     1  UNL1        0.0000
     56 N           1.9758    9.6985    4.2213 N.2     1  UNL1        0.0000
@<TRIPOS>BOND
     1     4     3    2
     2     3     2    2
     3    53    52    1
     4    41    40    1
     5    51    50    1
     6    42    40    1
     7    52    50   ar
     8    52    43   ar
     9     2     1    1
    10    50    48   ar
    11    40    43    1
    12    40    38    1
    13    21    19    1
    14    20    19    1
    15    43    44   ar
    16     5     6    2
    17     5     1    1
    18     7     6    2
    19    48    49    1
    20    48    46   ar
    21    19    18    1
    22    19    22    1
    23    36    35    1
    24    44    46   ar
    25    44    45    1
    26    17    16    1
    27    38     1    1
    28    38    35    1
    29    38    39    1
    30    46    47    1
    31     1    22    1
    32     1    30    1
    33     1    54    1
    34    18    16   ar
    35    18     8   ar
    36    16    14   ar
    37    31    30    1
    38    35    37    1
    39    35    32    1
    40    26    24    1
    41    22    23    1
    42    22    24    1
    43     9     8    1
    44     8    10   ar
    45    14    15    1
    46    14    12   ar
    47    30    32    1
    48    30    27    1
    49    24    25    1
    50    24    27    1
    51    10    12   ar
    52    10    11    1
    53    12    13    1
    54    32    34    1
    55    32    33    1
    56    54    55    2
    57    27    28    1
    58    27    29    1
    59    55    56    2
