@<TRIPOS>MOLECULE
CSD_code = KIRVAJ | q = 0 | S = 0 | Stoichiometry = C22H33CoN12O2 | MND = 6
 70 73 0 0 0
SMALL
GASTEIGER

@<TRIPOS>ATOM
      1 CO          4.6985    3.8620    7.1592 Co.oh   1  UNL1        0.0000
      2 N           4.1163    4.3498    9.0438 N.4     1  UNL1        0.0000
      3 H           4.5173    3.5769    9.5823 H       1  UNL1        0.0000
      4 N           5.9476    5.4224    7.3348 N.4     1  UNL1        0.0000
      5 H           5.4215    6.2270    6.9913 H       1  UNL1        0.0000
      6 C           6.2012    5.6134    8.7562 C.3     1  UNL1        0.0000
      7 H           6.7155    6.5598    8.9701 H       1  UNL1        0.0000
      8 H           6.8183    4.7848    9.1119 H       1  UNL1        0.0000
      9 C           4.8332    5.5757    9.4345 C.3     1  UNL1        0.0000
     10 H           4.9333    5.6428   10.5236 H       1  UNL1        0.0000
     11 H           4.2403    6.4275    9.0880 H       1  UNL1        0.0000
     12 N           2.6289    5.0271    5.6420 N.2     1  UNL1        0.0000
     13 N           3.4631    5.0903    6.4610 N.2     1  UNL1        0.0000
     14 N           1.8156    5.1314    4.8574 N.2     1  UNL1        0.0000
     15 C           2.6904    4.4336    9.4135 C.3     1  UNL1        0.0000
     16 H           2.1920    3.5246    9.0711 H       1  UNL1        0.0000
     17 H           2.2508    5.2833    8.8870 H       1  UNL1        0.0000
     18 N           5.9836    2.7447    8.0122 N.2     1  UNL1        0.0000
     19 N           5.6190    3.5759    5.3732 N.4     1  UNL1        0.0000
     20 H           6.2223    2.7684    5.5503 H       1  UNL1        0.0000
     21 N           3.5853    2.4085    6.8995 N.2     1  UNL1        0.0000
     22 C           6.5045    4.7247    5.1209 C.3     1  UNL1        0.0000
     23 H           5.8998    5.5239    4.6804 H       1  UNL1        0.0000
     24 H           7.2994    4.4613    4.4135 H       1  UNL1        0.0000
     25 C           7.0859    5.2044    6.4512 C.3     1  UNL1        0.0000
     26 H           7.7236    4.4287    6.8839 H       1  UNL1        0.0000
     27 H           7.6889    6.1110    6.3090 H       1  UNL1        0.0000
     28 N           3.0704    1.7112    7.6873 N.2     1  UNL1        0.0000
     29 N           2.5070    0.9827    8.3518 N.2     1  UNL1        0.0000
     30 N           6.6253    1.8530    7.6084 N.2     1  UNL1        0.0000
     31 N           7.3242    1.0153    7.2879 N.2     1  UNL1        0.0000
     32 C           5.7416    2.7460    3.0594 C.ar    1  UNL1        0.0000
     33 C           6.5389    1.6149    3.2252 C.ar    1  UNL1        0.0000
     34 H           6.4917    1.0470    4.1440 H       1  UNL1        0.0000
     35 C           4.8417    3.2069    4.1750 C.3     1  UNL1        0.0000
     36 H           4.2451    4.0636    3.8565 H       1  UNL1        0.0000
     37 H           4.1574    2.4067    4.4704 H       1  UNL1        0.0000
     38 C           2.7672    3.4720   11.7269 C.ar    1  UNL1        0.0000
     39 H           3.0533    2.5270   11.2875 H       1  UNL1        0.0000
     40 C           2.6325    3.5748   13.0928 C.ar    1  UNL1        0.0000
     41 H           2.8206    2.7313   13.7374 H       1  UNL1        0.0000
     42 C           2.5125    4.5661   10.9027 C.ar    1  UNL1        0.0000
     43 C           7.4499    1.8952    1.0122 C.ar    1  UNL1        0.0000
     44 C           2.2313    4.7793   13.6783 C.ar    1  UNL1        0.0000
     45 C           6.6551    3.0237    0.8411 C.ar    1  UNL1        0.0000
     46 H           6.6783    3.5872   -0.0782 H       1  UNL1        0.0000
     47 C           2.1207    5.7593   11.4869 C.ar    1  UNL1        0.0000
     48 H           1.9109    6.6174   10.8643 H       1  UNL1        0.0000
     49 C           1.9750    5.8744   12.8598 C.ar    1  UNL1        0.0000
     50 H           1.6595    6.8182   13.2753 H       1  UNL1        0.0000
     51 C           7.3828    1.1968    2.2213 C.ar    1  UNL1        0.0000
     52 H           8.0007    0.3216    2.3422 H       1  UNL1        0.0000
     53 C           5.8165    3.4390    1.8624 C.ar    1  UNL1        0.0000
     54 H           5.2021    4.3154    1.7135 H       1  UNL1        0.0000
     55 C           8.3885    2.0119   -1.1822 C.3     1  UNL1        0.0000
     56 H           8.7422    3.0476   -1.0783 H       1  UNL1        0.0000
     57 H           7.3980    2.0247   -1.6576 H       1  UNL1        0.0000
     58 C           9.3646    1.2057   -2.0243 C.3     1  UNL1        0.0000
     59 H          10.3405    1.1893   -1.5472 H       1  UNL1        0.0000
     60 H           9.4558    1.6494   -3.0115 H       1  UNL1        0.0000
     61 H           9.0109    0.1832   -2.1229 H       1  UNL1        0.0000
     62 C           1.6586    5.9317   15.6923 C.3     1  UNL1        0.0000
     63 H           0.6677    6.2121   15.3094 H       1  UNL1        0.0000
     64 H           2.3516    6.7678   15.5211 H       1  UNL1        0.0000
     65 C           1.5771    5.6130   17.1767 C.3     1  UNL1        0.0000
     66 H           0.8956    4.7828   17.3396 H       1  UNL1        0.0000
     67 H           1.2198    6.4814   17.7226 H       1  UNL1        0.0000
     68 H           2.5581    5.3335   17.5508 H       1  UNL1        0.0000
     69 O           2.1235    4.7718   15.0296 O.3     1  UNL1        0.0000
     70 O           8.3083    1.3964    0.0886 O.3     1  UNL1        0.0000
@<TRIPOS>BOND
     1    60    58    1
     2    61    58    1
     3    58    59    1
     4    58    55    1
     5    57    55    1
     6    55    56    1
     7    55    70    1
     8    46    45    1
     9    70    43    1
    10    45    43   ar
    11    45    53   ar
    12    43    51   ar
    13    54    53    1
    14    53    32   ar
    15    51    52    1
    16    51    33   ar
    17    32    33   ar
    18    32    35    1
    19    33    34    1
    20    36    35    1
    21    35    37    1
    22    35    19    1
    23    24    22    1
    24    23    22    1
    25    14    12    2
    26    22    19    1
    27    22    25    1
    28    19    20    1
    29    19     1    1
    30    12    13    2
    31    27    25    1
    32    25    26    1
    33    25     4    1
    34    13     1    1
    35    21     1    1
    36    21    28    2
    37     5     4    1
    38     1     4    1
    39     1    18    1
    40     1     2    1
    41    31    30    2
    42     4     6    1
    43    30    18    2
    44    28    29    2
    45     6     7    1
    46     6     8    1
    47     6     9    1
    48    17    15    1
    49     2    15    1
    50     2     9    1
    51     2     3    1
    52    16    15    1
    53    11     9    1
    54    15    42    1
    55     9    10    1
    56    48    47    1
    57    42    47   ar
    58    42    38   ar
    59    39    38    1
    60    47    49   ar
    61    38    40   ar
    62    49    50    1
    63    49    44   ar
    64    40    44   ar
    65    40    41    1
    66    44    69    1
    67    69    62    1
    68    63    62    1
    69    64    62    1
    70    62    65    1
    71    65    66    1
    72    65    68    1
    73    65    67    1
