@<TRIPOS>MOLECULE
CSD_code = KIZRAO | q = 0 | S = 0 | Stoichiometry = C26H21CoN8O8 | MND = 6
 64 71 0 0 0
SMALL
GASTEIGER

@<TRIPOS>ATOM
      1 CO          4.9198    6.1332    3.7533 Co.oh   1  UNL1        0.0000
      2 N           4.6576    5.9649    1.8955 N.3     1  UNL1        0.0000
      3 N           5.4835    6.8129    1.2317 N.3     1  UNL1        0.0000
      4 H           5.4814    6.8395    0.2162 H       1  UNL1        0.0000
      5 N           8.0764    9.2882    2.0506 N.ar    1  UNL1        0.0000
      6 N           8.8940   10.2610   -1.2943 N.pl3   1  UNL1        0.0000
      7 N           5.1483    6.4365    5.5416 N.pl3   1  UNL1        0.0000
      8 N           4.3085    7.3678    6.0409 N.2     1  UNL1        0.0000
      9 N           2.2584    9.3039    6.7219 N.ar    1  UNL1        0.0000
     10 N          -0.0255   11.3292    4.8689 N.pl3   1  UNL1        0.0000
     11 O           3.6824    4.8637    4.1828 O.3     1  UNL1        0.0000
     12 O           6.2069    7.4561    3.2492 O.3     1  UNL1        0.0000
     13 O           8.4266    9.8597   -2.3403 O.2     1  UNL1        0.0000
     14 O           9.7680   11.0981   -1.1926 O.2     1  UNL1        0.0000
     15 O           6.2390    4.8449    3.6136 O.3     1  UNL1        0.0000
     16 O           3.6033    7.4772    3.8838 O.2     1  UNL1        0.0000
     17 O          -0.2150   11.3872    3.6691 O.2     1  UNL1        0.0000
     18 O          -0.6146   12.0039    5.6951 O.2     1  UNL1        0.0000
     19 C           3.8499    5.1766    1.2664 C.3     1  UNL1        0.0000
     20 H           3.8229    5.2005    0.1754 H       1  UNL1        0.0000
     21 C           2.9911    4.2756    1.9356 C.ar    1  UNL1        0.0000
     22 C           2.9649    4.1772    3.3651 C.ar    1  UNL1        0.0000
     23 C           2.0602    3.2369    3.9278 C.ar    1  UNL1        0.0000
     24 H           2.0414    3.1642    5.0044 H       1  UNL1        0.0000
     25 C           1.2514    2.4579    3.1500 C.ar    1  UNL1        0.0000
     26 H           0.5770    1.7540    3.6151 H       1  UNL1        0.0000
     27 C           1.2854    2.5603    1.7523 C.ar    1  UNL1        0.0000
     28 H           0.6417    1.9389    1.1498 H       1  UNL1        0.0000
     29 C           2.1393    3.4523    1.1681 C.ar    1  UNL1        0.0000
     30 H           2.1767    3.5431    0.0915 H       1  UNL1        0.0000
     31 C           6.2864    7.5756    2.0048 C.3     1  UNL1        0.0000
     32 C           7.1959    8.4909    1.3515 C.ar    1  UNL1        0.0000
     33 C           7.3705    8.7373   -0.0005 C.ar    1  UNL1        0.0000
     34 H           6.8590    8.3038   -0.8352 H       1  UNL1        0.0000
     35 C           8.3816    9.7071   -0.0989 C.ar    1  UNL1        0.0000
     36 C           8.7907   10.0200    1.1907 C.ar    1  UNL1        0.0000
     37 H           9.5437   10.7186    1.4979 H       1  UNL1        0.0000
     38 C           8.2146    9.3288    3.4801 C.3     1  UNL1        0.0000
     39 H           8.9996   10.0355    3.7417 H       1  UNL1        0.0000
     40 H           8.4669    8.3397    3.8647 H       1  UNL1        0.0000
     41 H           7.2757    9.6352    3.9430 H       1  UNL1        0.0000
     42 C           5.9693    5.8341    6.3398 C.3     1  UNL1        0.0000
     43 H           5.9521    6.1260    7.3871 H       1  UNL1        0.0000
     44 C           6.8788    4.8185    5.9382 C.ar    1  UNL1        0.0000
     45 C           6.9498    4.3685    4.5870 C.ar    1  UNL1        0.0000
     46 C           7.8769    3.3432    4.2894 C.ar    1  UNL1        0.0000
     47 H           7.9247    3.0012    3.2664 H       1  UNL1        0.0000
     48 C           8.6819    2.7983    5.2557 C.ar    1  UNL1        0.0000
     49 H           9.3774    2.0146    4.9924 H       1  UNL1        0.0000
     50 C           8.6097    3.2447    6.5770 C.ar    1  UNL1        0.0000
     51 H           9.2470    2.8091    7.3310 H       1  UNL1        0.0000
     52 C           7.7204    4.2357    6.9026 C.ar    1  UNL1        0.0000
     53 H           7.6507    4.5884    7.9221 H       1  UNL1        0.0000
     54 C           3.5246    7.8543    5.1105 C.2     1  UNL1        0.0000
     55 C           2.5385    8.8684    5.4479 C.ar    1  UNL1        0.0000
     56 C           1.7292    9.5507    4.5646 C.ar    1  UNL1        0.0000
     57 H           1.7018    9.4369    3.5010 H       1  UNL1        0.0000
     58 C           0.9431   10.4247    5.3398 C.ar    1  UNL1        0.0000
     59 C           1.3013   10.2378    6.6688 C.ar    1  UNL1        0.0000
     60 H           0.9109   10.7278    7.5388 H       1  UNL1        0.0000
     61 C           2.8788    8.8314    7.9262 C.3     1  UNL1        0.0000
     62 H           3.9376    9.0907    7.9310 H       1  UNL1        0.0000
     63 H           2.8063    7.7458    7.9793 H       1  UNL1        0.0000
     64 H           2.3831    9.2821    8.7840 H       1  UNL1        0.0000
@<TRIPOS>BOND
     1    13     6    2
     2     6    14    2
     3     6    35    1
     4    34    33    1
     5    35    33   ar
     6    35    36   ar
     7    33    32   ar
     8    30    29    1
     9    20    19    1
    10     4     3    1
    11    28    27    1
    12    29    27   ar
    13    29    21   ar
    14    36    37    1
    15    36     5   ar
    16     3     2    1
    17     3    31    1
    18    19     2    1
    19    19    21    1
    20    32    31    1
    21    32     5   ar
    22    27    25   ar
    23     2     1    1
    24    21    22   ar
    25    31    12    1
    26     5    38    1
    27    25    26    1
    28    25    23   ar
    29    12     1    1
    30    47    46    1
    31    22    23   ar
    32    22    11    1
    33    38    39    1
    34    38    40    1
    35    38    41    1
    36    57    56    1
    37    15     1    1
    38    15    45    1
    39    17    10    2
    40     1    16    1
    41     1    11    1
    42     1     7    1
    43    16    54    1
    44    23    24    1
    45    46    45   ar
    46    46    48   ar
    47    56    58   ar
    48    56    55   ar
    49    45    44   ar
    50    10    58    1
    51    10    18    2
    52    49    48    1
    53    54    55    1
    54    54     8    2
    55    48    50   ar
    56    58    59   ar
    57    55     9   ar
    58     7     8    1
    59     7    42    1
    60    44    42    1
    61    44    52   ar
    62    42    43    1
    63    50    52   ar
    64    50    51    1
    65    59     9   ar
    66    59    60    1
    67     9    61    1
    68    52    53    1
    69    61    62    1
    70    61    63    1
    71    61    64    1
