@<TRIPOS>MOLECULE
CSD_code = KUDJAU | q = 0 | S = 0 | Stoichiometry = C4H12CoN3O5 | MND = 6
 25 26 0 0 0
SMALL
GASTEIGER

@<TRIPOS>ATOM
      1 CO          6.6831   11.9229    0.3580 Co.oh   1  UNL1        0.0000
      2 N           5.9850   10.8067   -1.1758 N.4     1  UNL1        0.0000
      3 N           8.3860   12.5799   -0.6244 N.4     1  UNL1        0.0000
      4 N           5.5609   13.5812   -0.0827 N.4     1  UNL1        0.0000
      5 C           6.7386   12.3802    2.9467 C.2     1  UNL1        0.0000
      6 O           7.2529   12.8337    1.8474 O.3     1  UNL1        0.0000
      7 O           6.9728   12.8275    4.0474 O.2     1  UNL1        0.0000
      8 C           5.7726   11.2111    2.6774 C.3     1  UNL1        0.0000
      9 O           5.2865   11.3548    1.3813 O.3     1  UNL1        0.0000
     10 C           6.5306    9.8928    2.8786 C.3     1  UNL1        0.0000
     11 C           7.6513    9.6767    1.8521 C.2     1  UNL1        0.0000
     12 O           7.6963   10.4293    0.8044 O.3     1  UNL1        0.0000
     13 O           8.4480    8.7703    2.0050 O.2     1  UNL1        0.0000
     14 H           4.9251   11.2608    3.3768 H       1  UNL1        0.0000
     15 H           5.8436    9.0494    2.7663 H       1  UNL1        0.0000
     16 H           6.9636    9.8520    3.8788 H       1  UNL1        0.0000
     17 H           6.6183   10.0113   -1.2291 H       1  UNL1        0.0000
     18 H           5.8203   11.1558   -2.1145 H       1  UNL1        0.0000
     19 H           5.1075   10.4519   -0.8002 H       1  UNL1        0.0000
     20 H           8.9876   11.7604   -0.5778 H       1  UNL1        0.0000
     21 H           8.7761   13.2503    0.0333 H       1  UNL1        0.0000
     22 H           8.4413   12.9730   -1.5578 H       1  UNL1        0.0000
     23 H           4.6697   13.3374    0.3467 H       1  UNL1        0.0000
     24 H           5.9549   14.3349    0.4756 H       1  UNL1        0.0000
     25 H           5.3886   13.9278   -1.0208 H       1  UNL1        0.0000
@<TRIPOS>BOND
     1    18     2    1
     2    22     3    1
     3    17     2    1
     4     2    19    1
     5     2     1    1
     6    25     4    1
     7     3    20    1
     8     3    21    1
     9     3     1    1
    10     4    23    1
    11     4     1    1
    12     4    24    1
    13     1    12    1
    14     1     9    1
    15     1     6    1
    16    12    11    1
    17     9     8    1
    18     6     5    1
    19    11    13    2
    20    11    10    1
    21     8    10    1
    22     8     5    1
    23     8    14    1
    24    15    10    1
    25    10    16    1
    26     5     7    2
