@<TRIPOS>MOLECULE
CSD_code = LAKZOM | q = 1 | S = 0 | Stoichiometry = C47H43CoOP3S(1+) | MND = 5
 96 105 0 0 0
SMALL
GASTEIGER

@<TRIPOS>ATOM
      1 CO          8.5741    9.9186    4.9433 Co.oh   1  UNL1        0.0000
      2 S           7.4733   11.4989    6.0469 S.3     1  UNL1        0.0000
      3 P           7.1267    9.5798    3.3117 P.3     1  UNL1        0.0000
      4 P           7.6660    8.1858    5.9233 P.3     1  UNL1        0.0000
      5 P          10.0368    8.6365    3.8867 P.3     1  UNL1        0.0000
      6 O          10.0660   10.7356    5.4944 O.3     1  UNL1        0.0000
      7 C           6.9425    7.8233    2.7606 C.3     1  UNL1        0.0000
      8 H           7.0329    7.7949    1.6710 H       1  UNL1        0.0000
      9 H           5.9126    7.5426    3.0036 H       1  UNL1        0.0000
     10 C           7.6367    6.6480    4.8906 C.3     1  UNL1        0.0000
     11 H           6.6615    6.1758    5.0429 H       1  UNL1        0.0000
     12 H           8.3899    5.9784    5.3162 H       1  UNL1        0.0000
     13 C           9.3610    7.1200    3.0718 C.3     1  UNL1        0.0000
     14 H           9.9895    6.2698    3.3520 H       1  UNL1        0.0000
     15 H           9.4649    7.2645    1.9926 H       1  UNL1        0.0000
     16 C           7.8920    6.7922    3.3825 C.3     1  UNL1        0.0000
     17 C           7.5842    5.4313    2.7347 C.3     1  UNL1        0.0000
     18 H           6.5351    5.1712    2.8563 H       1  UNL1        0.0000
     19 H           8.1824    4.6439    3.1880 H       1  UNL1        0.0000
     20 H           7.8048    5.4521    1.6697 H       1  UNL1        0.0000
     21 C           8.3499    9.9550    0.7428 C.ar    1  UNL1        0.0000
     22 C           8.7904   10.7831   -0.2755 C.ar    1  UNL1        0.0000
     23 C           8.6332   12.1547   -0.1793 C.ar    1  UNL1        0.0000
     24 C           8.0321   12.7070    0.9420 C.ar    1  UNL1        0.0000
     25 C           7.5897   11.8854    1.9593 C.ar    1  UNL1        0.0000
     26 C           7.7355   10.5011    1.8622 C.ar    1  UNL1        0.0000
     27 H           8.4927    8.8883    0.6467 H       1  UNL1        0.0000
     28 H           9.2614   10.3518   -1.1460 H       1  UNL1        0.0000
     29 H           8.9796   12.7937   -0.9768 H       1  UNL1        0.0000
     30 H           7.9100   13.7766    1.0206 H       1  UNL1        0.0000
     31 H           7.1214   12.3041    2.8427 H       1  UNL1        0.0000
     32 C           4.7068   10.5871    4.3780 C.ar    1  UNL1        0.0000
     33 C           3.3695   10.9341    4.2807 C.ar    1  UNL1        0.0000
     34 C           2.6980   10.7898    3.0796 C.ar    1  UNL1        0.0000
     35 C           3.3664   10.3029    1.9658 C.ar    1  UNL1        0.0000
     36 C           4.6994    9.9544    2.0558 C.ar    1  UNL1        0.0000
     37 C           5.3760   10.0904    3.2685 C.ar    1  UNL1        0.0000
     38 H           5.2267   10.7104    5.3148 H       1  UNL1        0.0000
     39 H           2.8562   11.3200    5.1480 H       1  UNL1        0.0000
     40 H           1.6565   11.0623    3.0051 H       1  UNL1        0.0000
     41 H           2.8473   10.1991    1.0250 H       1  UNL1        0.0000
     42 H           5.2237    9.5875    1.1837 H       1  UNL1        0.0000
     43 C           8.1500    6.4699    8.0519 C.ar    1  UNL1        0.0000
     44 C           8.8372    6.0173    9.1614 C.ar    1  UNL1        0.0000
     45 C           9.9508    6.7058    9.6204 C.ar    1  UNL1        0.0000
     46 C          10.3742    7.8533    8.9726 C.ar    1  UNL1        0.0000
     47 C           9.6915    8.3105    7.8586 C.ar    1  UNL1        0.0000
     48 C           8.5834    7.6181    7.3904 C.ar    1  UNL1        0.0000
     49 H           7.2722    5.9441    7.7008 H       1  UNL1        0.0000
     50 H           8.5023    5.1279    9.6734 H       1  UNL1        0.0000
     51 H          10.4831    6.3480   10.4883 H       1  UNL1        0.0000
     52 H          11.2362    8.3946    9.3317 H       1  UNL1        0.0000
     53 H          10.0257    9.2029    7.3491 H       1  UNL1        0.0000
     54 C           5.8630    8.9759    7.8263 C.ar    1  UNL1        0.0000
     55 C           4.6176    9.1763    8.3877 C.ar    1  UNL1        0.0000
     56 C           3.4804    8.7395    7.7253 C.ar    1  UNL1        0.0000
     57 C           3.5944    8.1061    6.4996 C.ar    1  UNL1        0.0000
     58 C           4.8400    7.9042    5.9317 C.ar    1  UNL1        0.0000
     59 C           5.9847    8.3252    6.5989 C.ar    1  UNL1        0.0000
     60 H           6.7534    9.3256    8.3321 H       1  UNL1        0.0000
     61 H           4.5318    9.6762    9.3402 H       1  UNL1        0.0000
     62 H           2.5066    8.8973    8.1623 H       1  UNL1        0.0000
     63 H           2.7103    7.7724    5.9775 H       1  UNL1        0.0000
     64 H           4.9047    7.4226    4.9669 H       1  UNL1        0.0000
     65 C          10.9096   10.8317    2.3995 C.ar    1  UNL1        0.0000
     66 C          11.6408   11.4478    1.3998 C.ar    1  UNL1        0.0000
     67 C          12.4314   10.6891    0.5534 C.ar    1  UNL1        0.0000
     68 C          12.5044    9.3141    0.7167 C.ar    1  UNL1        0.0000
     69 C          11.7804    8.6937    1.7172 C.ar    1  UNL1        0.0000
     70 C          10.9668    9.4524    2.5557 C.ar    1  UNL1        0.0000
     71 H          10.2908   11.4222    3.0619 H       1  UNL1        0.0000
     72 H          11.5923   12.5196    1.2824 H       1  UNL1        0.0000
     73 H          12.9991   11.1684   -0.2293 H       1  UNL1        0.0000
     74 H          13.1330    8.7252    0.0660 H       1  UNL1        0.0000
     75 H          11.8554    7.6239    1.8565 H       1  UNL1        0.0000
     76 C          12.4795    8.9004    5.1344 C.ar    1  UNL1        0.0000
     77 C          13.5003    8.5423    5.9940 C.ar    1  UNL1        0.0000
     78 C          13.4496    7.3337    6.6703 C.ar    1  UNL1        0.0000
     79 C          12.3725    6.4839    6.4834 C.ar    1  UNL1        0.0000
     80 C          11.3451    6.8406    5.6292 C.ar    1  UNL1        0.0000
     81 C          11.3939    8.0479    4.9399 C.ar    1  UNL1        0.0000
     82 H          12.5160    9.8427    4.6069 H       1  UNL1        0.0000
     83 H          14.3397    9.2061    6.1370 H       1  UNL1        0.0000
     84 H          14.2475    7.0546    7.3410 H       1  UNL1        0.0000
     85 H          12.3271    5.5420    7.0092 H       1  UNL1        0.0000
     86 H          10.5074    6.1690    5.5090 H       1  UNL1        0.0000
     87 C          10.0834   11.7702    6.2964 C.ar    1  UNL1        0.0000
     88 C          11.2750   12.3410    6.7763 C.ar    1  UNL1        0.0000
     89 H          12.2197   11.9255    6.4607 H       1  UNL1        0.0000
     90 C          11.2041   13.4174    7.6268 C.ar    1  UNL1        0.0000
     91 H          12.1146   13.8647    7.9952 H       1  UNL1        0.0000
     92 C           9.9723   13.9452    8.0269 C.ar    1  UNL1        0.0000
     93 H           9.9491   14.7906    8.6965 H       1  UNL1        0.0000
     94 C           8.7919   13.3990    7.5761 C.ar    1  UNL1        0.0000
     95 H           7.8338   13.7953    7.8742 H       1  UNL1        0.0000
     96 C           8.8491   12.3142    6.7071 C.ar    1  UNL1        0.0000
@<TRIPOS>BOND
     1    28    22    1
     2    29    23    1
     3    22    23   ar
     4    22    21   ar
     5    73    67    1
     6    23    24   ar
     7    74    68    1
     8    67    68   ar
     9    67    66   ar
    10    27    21    1
    11    68    69   ar
    12    21    26   ar
    13    24    30    1
    14    24    25   ar
    15    41    35    1
    16    42    36    1
    17    72    66    1
    18    66    65   ar
    19    20    17    1
    20     8     7    1
    21    69    75    1
    22    69    70   ar
    23    26    25   ar
    24    26     3    1
    25    25    31    1
    26    35    36   ar
    27    35    34   ar
    28    15    13    1
    29    36    37   ar
    30    65    70   ar
    31    65    71    1
    32    70     5    1
    33    17    18    1
    34    17    19    1
    35    17    16    1
    36     7     9    1
    37     7     3    1
    38     7    16    1
    39    40    34    1
    40    13    14    1
    41    13    16    1
    42    13     5    1
    43    34    33   ar
    44    37     3    1
    45    37    32   ar
    46     3     1    1
    47    16    10    1
    48     5    81    1
    49     5     1    1
    50    33    32   ar
    51    33    39    1
    52    32    38    1
    53    82    76    1
    54    10    11    1
    55    10    12    1
    56    10     4    1
    57    81    76   ar
    58    81    80   ar
    59     1     6    1
    60     1     4    1
    61     1     2    1
    62    64    58    1
    63    76    77   ar
    64     6    87    1
    65    86    80    1
    66    80    79   ar
    67     4    59    1
    68     4    48    1
    69    58    57   ar
    70    58    59   ar
    71    63    57    1
    72    77    83    1
    73    77    78   ar
    74     2    96    1
    75    87    96   ar
    76    87    88   ar
    77    89    88    1
    78    79    78   ar
    79    79    85    1
    80    57    56   ar
    81    59    54   ar
    82    78    84    1
    83    96    94   ar
    84    88    90   ar
    85    53    47    1
    86    48    47   ar
    87    48    43   ar
    88    94    95    1
    89    94    92   ar
    90    90    91    1
    91    90    92   ar
    92    49    43    1
    93    56    62    1
    94    56    55   ar
    95    54    60    1
    96    54    55   ar
    97    47    46   ar
    98    92    93    1
    99    43    44   ar
   100    55    61    1
   101    46    52    1
   102    46    45   ar
   103    44    45   ar
   104    44    50    1
   105    45    51    1
