@<TRIPOS>MOLECULE
CSD_code = LITGIE | q = -1 | S = 0 | Stoichiometry = C20H24CoN4O2S2(1-) | MND = 6
 53 58 0 0 0
SMALL
GASTEIGER

@<TRIPOS>ATOM
      1 CO          6.4155    8.9539    2.0026 Co.oh   1  UNL1        0.0000
      2 S           7.7572    9.3227    3.8262 S.3     1  UNL1        0.0000
      3 S           6.3555   11.1300    1.2801 S.3     1  UNL1        0.0000
      4 O           2.7052    9.0251    3.4085 O.2     1  UNL1        0.0000
      5 O           9.2660    7.2230   -0.1484 O.2     1  UNL1        0.0000
      6 N           4.9939    9.1284    3.2255 N.am    1  UNL1        0.0000
      7 N           4.9859    8.6133    0.7281 N.pl3   1  UNL1        0.0000
      8 N           7.8229    8.7605    0.7665 N.am    1  UNL1        0.0000
      9 N           6.7198    7.0576    2.3107 N.pl3   1  UNL1        0.0000
     10 C           6.4838   10.0171    4.9649 C.3     1  UNL1        0.0000
     11 C           6.9239    9.7053    6.3931 C.3     1  UNL1        0.0000
     12 H           7.8733   10.1936    6.6004 H       1  UNL1        0.0000
     13 H           7.0576    8.6332    6.5237 H       1  UNL1        0.0000
     14 H           6.1774   10.0599    7.1043 H       1  UNL1        0.0000
     15 C           6.3863   11.5234    4.7575 C.3     1  UNL1        0.0000
     16 H           5.6682   11.9570    5.4548 H       1  UNL1        0.0000
     17 H           6.0666   11.7352    3.7395 H       1  UNL1        0.0000
     18 H           7.3601   11.9828    4.9161 H       1  UNL1        0.0000
     19 C           5.1561    9.3307    4.6478 C.3     1  UNL1        0.0000
     20 H           5.1259    8.3556    5.1604 H       1  UNL1        0.0000
     21 H           4.3098    9.9249    5.0199 H       1  UNL1        0.0000
     22 C           3.7606    9.0017    2.7624 C.2     1  UNL1        0.0000
     23 C           3.7757    8.7638    1.2875 C.3     1  UNL1        0.0000
     24 C           2.6010    8.6778    0.5516 C.2     1  UNL1        0.0000
     25 H           1.6677    8.8151    1.0760 H       1  UNL1        0.0000
     26 C           2.6701    8.4255   -0.8039 C.2     1  UNL1        0.0000
     27 H           1.7755    8.3655   -1.4079 H       1  UNL1        0.0000
     28 C           3.9252    8.2423   -1.3727 C.2     1  UNL1        0.0000
     29 H           4.0342    8.0263   -2.4251 H       1  UNL1        0.0000
     30 C           5.0471    8.3401   -0.5721 C.2     1  UNL1        0.0000
     31 H           6.0331    8.1897   -0.9895 H       1  UNL1        0.0000
     32 C           8.0075   11.1909    0.4635 C.3     1  UNL1        0.0000
     33 C           9.0657   11.5759    1.4898 C.3     1  UNL1        0.0000
     34 H           9.1135   10.8203    2.2709 H       1  UNL1        0.0000
     35 H           8.8084   12.5292    1.9472 H       1  UNL1        0.0000
     36 H          10.0434   11.6595    1.0135 H       1  UNL1        0.0000
     37 C           7.9367   12.2379   -0.6453 C.3     1  UNL1        0.0000
     38 H           7.7355   13.2163   -0.2151 H       1  UNL1        0.0000
     39 H           7.1338   12.0006   -1.3404 H       1  UNL1        0.0000
     40 H           8.8802   12.2749   -1.1907 H       1  UNL1        0.0000
     41 C           8.2841    9.8061   -0.1190 C.3     1  UNL1        0.0000
     42 H           7.7678    9.7163   -1.0885 H       1  UNL1        0.0000
     43 H           9.3583    9.6663   -0.3037 H       1  UNL1        0.0000
     44 C           8.3825    7.5670    0.6474 C.2     1  UNL1        0.0000
     45 C           7.7670    6.6013    1.6069 C.3     1  UNL1        0.0000
     46 C           8.2411    5.3024    1.7373 C.2     1  UNL1        0.0000
     47 H           9.0895    5.0140    1.1358 H       1  UNL1        0.0000
     48 C           7.6190    4.4418    2.6194 C.2     1  UNL1        0.0000
     49 H           7.9709    3.4285    2.7540 H       1  UNL1        0.0000
     50 C           6.5194    4.9123    3.3278 C.2     1  UNL1        0.0000
     51 H           5.9882    4.2761    4.0198 H       1  UNL1        0.0000
     52 C           6.1055    6.2170    3.1383 C.2     1  UNL1        0.0000
     53 H           5.2459    6.6020    3.6691 H       1  UNL1        0.0000
@<TRIPOS>BOND
     1    29    28    1
     2    27    26    1
     3    28    26    1
     4    28    30    2
     5    39    37    1
     6    40    37    1
     7    42    41    1
     8    31    30    1
     9    26    24    2
    10    37    38    1
    11    37    32    1
    12    30     7    1
    13    43    41    1
    14     5    44    2
    15    41    32    1
    16    41     8    1
    17    32     3    1
    18    32    33    1
    19    24    25    1
    20    24    23    1
    21    44     8   am
    22    44    45    1
    23     7    23    1
    24     7     1    1
    25     8     1    1
    26    36    33    1
    27    47    46    1
    28     3     1    1
    29    23    22    1
    30    33    35    1
    31    33    34    1
    32    45    46    1
    33    45     9    1
    34    46    48    2
    35     1     9    1
    36     1     6    1
    37     1     2    1
    38     9    52    1
    39    48    49    1
    40    48    50    1
    41    22     6   am
    42    22     4    2
    43    52    50    2
    44    52    53    1
    45     6    19    1
    46    50    51    1
    47    17    15    1
    48     2    10    1
    49    19    10    1
    50    19    21    1
    51    19    20    1
    52    15    18    1
    53    15    10    1
    54    15    16    1
    55    10    11    1
    56    11    13    1
    57    11    12    1
    58    11    14    1
