@<TRIPOS>MOLECULE
CSD_code = LONQIO | q = 0 | S = 0 | Stoichiometry = C22H38CoO2P3 | MND = 6
 66 65 0 0 0
SMALL
GASTEIGER

@<TRIPOS>ATOM
      1 CO          7.0334   16.0849    2.1860 Co.oh   1  UNL1        0.0000
      2 P           8.9564   16.5120    3.3917 P.3     2  UNL2        0.0000
      3 P           7.5800   15.9333   -0.0666 P.3     3  UNL3        0.0000
      4 P           6.9639   13.9211    2.6462 P.3     4  UNL4        0.0000
      5 O           7.2454   17.9467    1.9133 O.2     1  UNL1        0.0000
      6 O           4.8074   17.6027    5.2215 O.2     1  UNL1        0.0000
      7 C           5.0567   16.3239    1.9292 C.3     1  UNL1        0.0000
      8 H           4.8110   17.2433    1.4072 H       1  UNL1        0.0000
      9 H           4.5428   15.4525    1.5362 H       1  UNL1        0.0000
     10 C           5.3510   16.3847    3.3000 C.3     1  UNL1        0.0000
     11 H           5.0728   15.5263    3.9137 H       1  UNL1        0.0000
     12 C           5.2761   17.6433    4.0785 C.2     1  UNL1        0.0000
     13 C           5.6630   18.8749    3.4378 C.2     1  UNL1        0.0000
     14 C           5.1162   20.1582    4.0090 C.3     1  UNL1        0.0000
     15 H           4.2505   19.9248    4.6305 H       1  UNL1        0.0000
     16 H           5.8642   20.6387    4.6521 H       1  UNL1        0.0000
     17 C           4.7462   21.1044    2.8739 C.3     1  UNL1        0.0000
     18 H           3.9502   20.6531    2.2703 H       1  UNL1        0.0000
     19 H           4.3750   22.0555    3.2607 H       1  UNL1        0.0000
     20 C           5.9511   21.3241    2.0087 C.ar    1  UNL1        0.0000
     21 C           6.2093   22.5487    1.4151 C.ar    1  UNL1        0.0000
     22 H           5.5263   23.3706    1.5808 H       1  UNL1        0.0000
     23 C           7.3279   22.7345    0.6192 C.ar    1  UNL1        0.0000
     24 H           7.5157   23.6980    0.1677 H       1  UNL1        0.0000
     25 C           8.2044   21.6841    0.4104 C.ar    1  UNL1        0.0000
     26 H           9.0822   21.8226   -0.2050 H       1  UNL1        0.0000
     27 C           7.9547   20.4560    0.9930 C.ar    1  UNL1        0.0000
     28 H           8.6350   19.6315    0.8395 H       1  UNL1        0.0000
     29 C           6.8327   20.2588    1.7927 C.ar    1  UNL1        0.0000
     30 C           6.5548   18.9297    2.3924 C.2     1  UNL1        0.0000
     31 C           9.9964   17.9445    2.9017 C.3     2  UNL2        0.0000
     32 H           9.3896   18.8451    2.9159 H       2  UNL2        0.0000
     33 H          10.3838   17.7954    1.8961 H       2  UNL2        0.0000
     34 H          10.8276   18.0520    3.5982 H       2  UNL2        0.0000
     35 C           8.4923   17.0627    5.0766 C.3     2  UNL2        0.0000
     36 H           7.9698   16.2643    5.5993 H       2  UNL2        0.0000
     37 H           7.8100   17.9056    4.9877 H       2  UNL2        0.0000
     38 H           9.3763   17.3601    5.6409 H       2  UNL2        0.0000
     39 C          10.3435   15.3564    3.8149 C.3     2  UNL2        0.0000
     40 H           9.9678   14.4366    4.2552 H       2  UNL2        0.0000
     41 H          11.0250   15.8296    4.5202 H       2  UNL2        0.0000
     42 H          10.8904   15.1105    2.9058 H       2  UNL2        0.0000
     43 C           9.3320   15.7274   -0.5988 C.3     3  UNL3        0.0000
     44 H           9.4126   15.7266   -1.6850 H       3  UNL3        0.0000
     45 H           9.7284   14.7953   -0.2016 H       3  UNL3        0.0000
     46 H           9.9136   16.5515   -0.1917 H       3  UNL3        0.0000
     47 C           6.7844   14.6604   -1.1389 C.3     3  UNL3        0.0000
     48 H           5.7044   14.7707   -1.0619 H       3  UNL3        0.0000
     49 H           7.0565   13.6594   -0.8138 H       3  UNL3        0.0000
     50 H           7.0856   14.7937   -2.1770 H       3  UNL3        0.0000
     51 C           7.1352   17.4076   -1.0580 C.3     3  UNL3        0.0000
     52 H           6.0609   17.5642   -0.9875 H       3  UNL3        0.0000
     53 H           7.4198   17.2677   -2.1009 H       3  UNL3        0.0000
     54 H           7.6325   18.2817   -0.6486 H       3  UNL3        0.0000
     55 C           8.3044   12.8419    1.9913 C.3     4  UNL4        0.0000
     56 H           8.2436   12.8111    0.9058 H       4  UNL4        0.0000
     57 H           8.2098   11.8314    2.3877 H       4  UNL4        0.0000
     58 H           9.2707   13.2542    2.2697 H       4  UNL4        0.0000
     59 C           7.0304   13.4358    4.4179 C.3     4  UNL4        0.0000
     60 H           6.1920   13.8813    4.9489 H       4  UNL4        0.0000
     61 H           7.9507   13.8031    4.8655 H       4  UNL4        0.0000
     62 H           6.9849   12.3509    4.5141 H       4  UNL4        0.0000
     63 C           5.5079   12.9185    2.1419 C.3     4  UNL4        0.0000
     64 H           5.6639   11.8728    2.4061 H       4  UNL4        0.0000
     65 H           5.3549   13.0026    1.0680 H       4  UNL4        0.0000
     66 H           4.6226   13.2903    2.6541 H       4  UNL4        0.0000
@<TRIPOS>BOND
     1    50    47    1
     2    53    51    1
     3    44    43    1
     4    47    48    1
     5    47    49    1
     6    47     3    1
     7    51    52    1
     8    51    54    1
     9    51     3    1
    10    43    45    1
    11    43    46    1
    12    43     3    1
    13    26    25    1
    14    24    23    1
    15    25    23   ar
    16    25    27   ar
    17    23    21   ar
    18    28    27    1
    19    56    55    1
    20    27    29   ar
    21    65    63    1
    22     8     7    1
    23    21    22    1
    24    21    20   ar
    25     9     7    1
    26    29    20   ar
    27    29    30    1
    28    33    31    1
    29     5     1    1
    30     5    30    1
    31     7     1    1
    32     7    10    1
    33    55    58    1
    34    55    57    1
    35    55     4    1
    36    20    17    1
    37    63    64    1
    38    63     4    1
    39    63    66    1
    40    18    17    1
    41    30    13    2
    42     4    59    1
    43    17    19    1
    44    17    14    1
    45    31    32    1
    46    31     2    1
    47    31    34    1
    48    42    39    1
    49    10    11    1
    50    10    12    1
    51     2    39    1
    52     2    35    1
    53    13    14    1
    54    13    12    1
    55    39    40    1
    56    39    41    1
    57    14    15    1
    58    14    16    1
    59    12     6    2
    60    59    62    1
    61    59    61    1
    62    59    60    1
    63    37    35    1
    64    35    36    1
    65    35    38    1
