@<TRIPOS>MOLECULE
CSD_code = LOQQOA | q = 0 | S = 0 | Stoichiometry = C27H55CoP4Si | MND = 7
 88 93 0 0 0
SMALL
GASTEIGER

@<TRIPOS>ATOM
      1 CO          8.2468    9.1408   11.2264 Co.oh   1  UNL1        0.0000
      2 P           9.3620   11.0576   11.1164 P.3     1  UNL1        0.0000
      3 P           6.6395    7.9904    9.9990 P.3     1  UNL1        0.0000
      4 P           8.9127    6.7354   10.6817 P.3     1  UNL1        0.0000
      5 P           8.2347   10.1456   13.3109 P.3     1  UNL1        0.0000
      6 SI         10.8776    7.2231   11.8077 Si      1  UNL1        0.0000
      7 C           8.3704    8.0742    9.5499 C.3     1  UNL1        0.0000
      8 C           7.3943    7.3681   11.5093 C.3     1  UNL1        0.0000
      9 C           9.8247   12.6700   10.2978 C.3     1  UNL1        0.0000
     10 H           9.0131   12.9206    9.6112 H       1  UNL1        0.0000
     11 H           9.9115   13.4713   11.0339 H       1  UNL1        0.0000
     12 C           7.7255   11.0339   11.8697 C.3     1  UNL1        0.0000
     13 C          11.1309   12.4930    9.5260 C.3     1  UNL1        0.0000
     14 H          11.8922   12.0818   10.1960 H       1  UNL1        0.0000
     15 H          10.9760   11.7677    8.7226 H       1  UNL1        0.0000
     16 C           9.9721   10.8090   12.8676 C.3     1  UNL1        0.0000
     17 C          10.4942   11.9130   13.7985 C.3     1  UNL1        0.0000
     18 C           6.6688    6.6094   12.5926 C.3     1  UNL1        0.0000
     19 C           8.8960    8.3027    8.1552 C.3     1  UNL1        0.0000
     20 C           6.4169   11.6807   11.5075 C.3     1  UNL1        0.0000
     21 C           6.1941   11.6810    9.9939 C.3     1  UNL1        0.0000
     22 H           6.9773   12.2363    9.4826 H       1  UNL1        0.0000
     23 H           5.2368   12.1409    9.7576 H       1  UNL1        0.0000
     24 H           6.1891   10.6600    9.6163 H       1  UNL1        0.0000
     25 C           9.4873   13.0425   13.9922 C.3     1  UNL1        0.0000
     26 H           9.2044   13.4870   13.0425 H       1  UNL1        0.0000
     27 H           9.9097   13.8197   14.6262 H       1  UNL1        0.0000
     28 H           8.5879   12.6590   14.4716 H       1  UNL1        0.0000
     29 C          11.6532   13.8003    8.9302 C.3     1  UNL1        0.0000
     30 H          11.7784   14.5378    9.7273 H       1  UNL1        0.0000
     31 H          12.6389   13.6135    8.4978 H       1  UNL1        0.0000
     32 C          10.8566    7.4178   13.7229 C.3     1  UNL1        0.0000
     33 H          10.1130    8.1248   14.0768 H       1  UNL1        0.0000
     34 H          11.8296    7.7514   14.0726 H       1  UNL1        0.0000
     35 H          10.6524    6.4636   14.1968 H       1  UNL1        0.0000
     36 C           7.6261    6.2696   13.7321 C.3     1  UNL1        0.0000
     37 H           8.4836    5.7208   13.3429 H       1  UNL1        0.0000
     38 H           7.1284    5.6550   14.4794 H       1  UNL1        0.0000
     39 H           7.9768    7.1813   14.2095 H       1  UNL1        0.0000
     40 C          10.7533   11.2547   15.1595 C.3     1  UNL1        0.0000
     41 H           9.8433   10.7816   15.5272 H       1  UNL1        0.0000
     42 H          11.0717   11.9985   15.8867 H       1  UNL1        0.0000
     43 H          11.5279   10.4951   15.0812 H       1  UNL1        0.0000
     44 C           6.4431   13.1330   12.0082 C.3     1  UNL1        0.0000
     45 H           6.5639   13.1604   13.0886 H       1  UNL1        0.0000
     46 H           5.5086   13.6285   11.7526 H       1  UNL1        0.0000
     47 H           7.2605   13.6857   11.5494 H       1  UNL1        0.0000
     48 C          11.7395    5.5410   11.4901 C.3     1  UNL1        0.0000
     49 H          11.1619    4.7193   11.9036 H       1  UNL1        0.0000
     50 H          12.7246    5.5133   11.9433 H       1  UNL1        0.0000
     51 H          11.8589    5.3488   10.4275 H       1  UNL1        0.0000
     52 C           5.4922    7.4236   13.1272 C.3     1  UNL1        0.0000
     53 H           5.8521    8.3456   13.5792 H       1  UNL1        0.0000
     54 H           4.9478    6.8555   13.8784 H       1  UNL1        0.0000
     55 H           4.8086    7.6705   12.3161 H       1  UNL1        0.0000
     56 C           5.2659   10.9416   12.1892 C.3     1  UNL1        0.0000
     57 H           5.1762    9.9410   11.7736 H       1  UNL1        0.0000
     58 H           4.3274   11.4702   12.0378 H       1  UNL1        0.0000
     59 H           5.4525   10.8620   13.2600 H       1  UNL1        0.0000
     60 C          12.1199    8.5341   11.1278 C.3     1  UNL1        0.0000
     61 H          12.6203    8.1565   10.2422 H       1  UNL1        0.0000
     62 H          12.8859    8.7394   11.8706 H       1  UNL1        0.0000
     63 H          11.6499    9.4775   10.8630 H       1  UNL1        0.0000
     64 C           6.1456    5.3074   11.9708 C.3     1  UNL1        0.0000
     65 H           5.4488    5.5276   11.1629 H       1  UNL1        0.0000
     66 H           5.6335    4.7073   12.7205 H       1  UNL1        0.0000
     67 H           6.9723    4.7260   11.5629 H       1  UNL1        0.0000
     68 C          11.8186   12.4679   13.2664 C.3     1  UNL1        0.0000
     69 H          12.5193   11.6589   13.0686 H       1  UNL1        0.0000
     70 H          12.2666   13.1341   14.0014 H       1  UNL1        0.0000
     71 H          11.6721   13.0283   12.3480 H       1  UNL1        0.0000
     72 C           8.4365    7.1283    7.2818 C.3     1  UNL1        0.0000
     73 H           8.8064    6.1896    7.6932 H       1  UNL1        0.0000
     74 H           8.8123    7.2369    6.2660 H       1  UNL1        0.0000
     75 H           7.3488    7.0839    7.2502 H       1  UNL1        0.0000
     76 C          10.4221    8.3535    8.1607 C.3     1  UNL1        0.0000
     77 H          10.7675    9.2106    8.7334 H       1  UNL1        0.0000
     78 H          10.8069    8.4346    7.1457 H       1  UNL1        0.0000
     79 H          10.8213    7.4459    8.6133 H       1  UNL1        0.0000
     80 C          10.7394   14.3693    7.8509 C.3     1  UNL1        0.0000
     81 H          10.5643   13.6297    7.0724 H       1  UNL1        0.0000
     82 H          11.1957   15.2447    7.3950 H       1  UNL1        0.0000
     83 H           9.7796   14.6685    8.2648 H       1  UNL1        0.0000
     84 C           8.3311    9.6096    7.5966 C.3     1  UNL1        0.0000
     85 H           7.2431    9.5658    7.5696 H       1  UNL1        0.0000
     86 H           8.6977    9.7864    6.5874 H       1  UNL1        0.0000
     87 H           8.6275   10.4450    8.2307 H       1  UNL1        0.0000
     88 H          10.7253   10.0155   12.8748 H       1  UNL1        0.0000
@<TRIPOS>BOND
     1    74    72    1
     2    86    84    1
     3    81    80    1
     4    78    76    1
     5    75    72    1
     6    72    73    1
     7    72    19    1
     8    82    80    1
     9    85    84    1
    10    84    19    1
    11    84    87    1
    12    80    83    1
    13    80    29    1
    14    19    76    1
    15    19     7    1
    16    76    79    1
    17    76    77    1
    18    31    29    1
    19    15    13    1
    20    29    13    1
    21    29    30    1
    22    22    21    1
    23    13    14    1
    24    13     9    1
    25     7     3    1
    26     7     4    1
    27     7     1    1
    28    10     9    1
    29    24    21    1
    30    23    21    1
    31    21    20    1
    32     3     1    1
    33     3     8    1
    34    61    60    1
    35     9    11    1
    36     9     2    1
    37    51    48    1
    38     4     8    1
    39     4     6    1
    40    63    60    1
    41     2     1    1
    42     2    12    1
    43     2    16    1
    44    60     6    1
    45    60    62    1
    46    65    64    1
    47     1     8    1
    48     1    12    1
    49     1     5    1
    50    48     6    1
    51    48    49    1
    52    48    50    1
    53    20    12    1
    54    20    44    1
    55    20    56    1
    56     8    18    1
    57    47    44    1
    58    67    64    1
    59    46    44    1
    60    57    56    1
    61     6    32    1
    62    12     5    1
    63    64    18    1
    64    64    66    1
    65    44    45    1
    66    58    56    1
    67    56    59    1
    68    55    52    1
    69    71    68    1
    70    18    52    1
    71    18    36    1
    72    16    88    1
    73    16     5    1
    74    16    17    1
    75    26    25    1
    76    69    68    1
    77    52    53    1
    78    52    54    1
    79    68    17    1
    80    68    70    1
    81    37    36    1
    82    32    34    1
    83    32    33    1
    84    32    35    1
    85    36    39    1
    86    36    38    1
    87    17    25    1
    88    17    40    1
    89    25    28    1
    90    25    27    1
    91    43    40    1
    92    40    41    1
    93    40    42    1
