@<TRIPOS>MOLECULE
CSD_code = LORZEY | q = -1 | S = 0 | Stoichiometry = C8H10CoN2O8(1-) | MND = 6
 29 32 0 0 0
SMALL
GASTEIGER

@<TRIPOS>ATOM
      1 CO         -0.0000    5.2906   -0.0000 Co.oh   1  UNL1        0.0000
      2 O          -1.1579    5.7271    1.4154 O.3     1  UNL1        0.0000
      3 O          -1.6419    5.2118    3.5197 O.2     1  UNL1        0.0000
      4 O           1.1681    6.6305    0.6058 O.3     1  UNL1        0.0000
      5 O           2.8761    7.0067    1.9712 O.2     1  UNL1        0.0000
      6 N           0.8853    4.1047    1.2375 N.4     1  UNL1        0.0000
      7 H           1.0931    3.2289    0.7585 H       1  UNL1        0.0000
      8 C          -1.0414    5.0375    2.4777 C.2     1  UNL1        0.0000
      9 C          -0.0530    3.8406    2.3366 C.3     1  UNL1        0.0000
     10 H           0.4618    3.6565    3.2851 H       1  UNL1        0.0000
     11 H          -0.6695    2.9741    2.0850 H       1  UNL1        0.0000
     12 C           2.1451    4.7353    1.6570 C.3     1  UNL1        0.0000
     13 H           2.9639    4.3731    1.0305 H       1  UNL1        0.0000
     14 H           2.3771    4.5295    2.7066 H       1  UNL1        0.0000
     15 C           2.0757    6.2753    1.4221 C.2     1  UNL1        0.0000
     16 O           1.1579    4.8541   -1.4154 O.3     1  UNL1        0.0000
     17 O           1.6419    5.3694   -3.5197 O.2     1  UNL1        0.0000
     18 O          -1.1681    3.9507   -0.6058 O.3     1  UNL1        0.0000
     19 O          -2.8761    3.5744   -1.9712 O.2     1  UNL1        0.0000
     20 N          -0.8853    6.4765   -1.2375 N.4     1  UNL1        0.0000
     21 H          -1.0931    7.3523   -0.7585 H       1  UNL1        0.0000
     22 C           1.0414    5.5437   -2.4777 C.2     1  UNL1        0.0000
     23 C           0.0530    6.7406   -2.3366 C.3     1  UNL1        0.0000
     24 H          -0.4618    6.9247   -3.2851 H       1  UNL1        0.0000
     25 H           0.6695    7.6071   -2.0850 H       1  UNL1        0.0000
     26 C          -2.1451    5.8459   -1.6570 C.3     1  UNL1        0.0000
     27 H          -2.9639    6.2081   -1.0305 H       1  UNL1        0.0000
     28 H          -2.3771    6.0517   -2.7066 H       1  UNL1        0.0000
     29 C          -2.0758    4.3059   -1.4221 C.2     1  UNL1        0.0000
@<TRIPOS>BOND
     1    17    22    2
     2    24    23    1
     3    28    26    1
     4    22    23    1
     5    22    16    1
     6    23    25    1
     7    23    20    1
     8    19    29    2
     9    26    29    1
    10    26    20    1
    11    26    27    1
    12    29    18    1
    13    16     1    1
    14    20    21    1
    15    20     1    1
    16    18     1    1
    17     1     4    1
    18     1     6    1
    19     1     2    1
    20     4    15    1
    21     7     6    1
    22    13    12    1
    23     6    12    1
    24     6     9    1
    25     2     8    1
    26    15    12    1
    27    15     5    2
    28    12    14    1
    29    11     9    1
    30     9     8    1
    31     9    10    1
    32     8     3    2
