@<TRIPOS>MOLECULE
CSD_code = LUFQAE | q = 0 | S = 0 | Stoichiometry = C52H48BCoNP3 | MND = 4
 106 115 0 0 0
SMALL
GASTEIGER

@<TRIPOS>ATOM
      1 CO          4.1554    4.6975    4.7511 Co.oh   1  UNL1        0.0000
      2 P           2.3647    5.4819    5.7381 P.3     1  UNL1        0.0000
      3 P           3.0997    3.1273    3.5951 P.3     1  UNL1        0.0000
      4 P           3.7687    5.9773    2.9934 P.3     1  UNL1        0.0000
      5 B           0.9866    5.0824    3.0980 B       1  UNL1        0.0000
      6 N           5.2119    4.6596    5.9995 N.pl3   1  UNL1        0.0000
      7 C          -0.4341    5.2596    2.3326 C.ar    1  UNL1        0.0000
      8 C          -1.5687    5.8256    2.9111 C.ar    1  UNL1        0.0000
      9 H          -1.5342    6.1683    3.9355 H       1  UNL1        0.0000
     10 C          -2.7582    5.9705    2.2174 C.ar    1  UNL1        0.0000
     11 H          -3.6157    6.4143    2.7061 H       1  UNL1        0.0000
     12 C          -2.8555    5.5504    0.9037 C.ar    1  UNL1        0.0000
     13 H          -3.7823    5.6610    0.3582 H       1  UNL1        0.0000
     14 C          -1.7464    4.9865    0.2978 C.ar    1  UNL1        0.0000
     15 H          -1.8034    4.6534   -0.7303 H       1  UNL1        0.0000
     16 C          -0.5666    4.8492    1.0047 C.ar    1  UNL1        0.0000
     17 H           0.2816    4.4069    0.4978 H       1  UNL1        0.0000
     18 C           0.8916    5.6284    4.6593 C.3     1  UNL1        0.0000
     19 H           0.0858    5.1111    5.1896 H       1  UNL1        0.0000
     20 H           0.6541    6.6969    4.6616 H       1  UNL1        0.0000
     21 C           1.3813    3.4763    3.1003 C.3     1  UNL1        0.0000
     22 H           1.2107    3.0049    2.1288 H       1  UNL1        0.0000
     23 H           0.7487    2.9416    3.8166 H       1  UNL1        0.0000
     24 C           2.1203    5.9250    2.2289 C.3     1  UNL1        0.0000
     25 H           1.8007    6.9499    2.0222 H       1  UNL1        0.0000
     26 H           2.2595    5.4380    1.2605 H       1  UNL1        0.0000
     27 C           2.5176    7.1253    6.5139 C.ar    1  UNL1        0.0000
     28 C           3.7304    7.7977    6.5262 C.ar    1  UNL1        0.0000
     29 H           4.5900    7.3361    6.0624 H       1  UNL1        0.0000
     30 C           3.8324    9.0448    7.1167 C.ar    1  UNL1        0.0000
     31 H           4.7807    9.5617    7.1210 H       1  UNL1        0.0000
     32 C           2.7185    9.6291    7.6935 C.ar    1  UNL1        0.0000
     33 H           2.7939   10.6048    8.1510 H       1  UNL1        0.0000
     34 C           1.5031    8.9610    7.6870 C.ar    1  UNL1        0.0000
     35 H           0.6346    9.4155    8.1417 H       1  UNL1        0.0000
     36 C           1.4007    7.7134    7.1026 C.ar    1  UNL1        0.0000
     37 H           0.4567    7.1852    7.1065 H       1  UNL1        0.0000
     38 C           1.8544    4.4876    7.1736 C.ar    1  UNL1        0.0000
     39 C           2.2243    4.8453    8.4677 C.ar    1  UNL1        0.0000
     40 H           2.7596    5.7681    8.6410 H       1  UNL1        0.0000
     41 C           1.9010    4.0243    9.5335 C.ar    1  UNL1        0.0000
     42 H           2.1849    4.3144   10.5348 H       1  UNL1        0.0000
     43 C           1.2299    2.8322    9.3198 C.ar    1  UNL1        0.0000
     44 H           0.9858    2.1907   10.1539 H       1  UNL1        0.0000
     45 C           0.8753    2.4614    8.0319 C.ar    1  UNL1        0.0000
     46 H           0.3600    1.5278    7.8578 H       1  UNL1        0.0000
     47 C           1.1868    3.2834    6.9666 C.ar    1  UNL1        0.0000
     48 H           0.9177    2.9916    5.9616 H       1  UNL1        0.0000
     49 C           2.9551    1.5118    4.4432 C.ar    1  UNL1        0.0000
     50 C           3.4744    1.3416    5.7178 C.ar    1  UNL1        0.0000
     51 H           3.9963    2.1715    6.1773 H       1  UNL1        0.0000
     52 C           3.3288    0.1349    6.3784 C.ar    1  UNL1        0.0000
     53 H           3.7315    0.0109    7.3735 H       1  UNL1        0.0000
     54 C           2.6660   -0.9120    5.7607 C.ar    1  UNL1        0.0000
     55 H           2.5487   -1.8559    6.2729 H       1  UNL1        0.0000
     56 C           2.1560   -0.7520    4.4810 C.ar    1  UNL1        0.0000
     57 H           1.6454   -1.5724    3.9975 H       1  UNL1        0.0000
     58 C           2.2973    0.4545    3.8223 C.ar    1  UNL1        0.0000
     59 H           1.9007    0.5815    2.8241 H       1  UNL1        0.0000
     60 C           3.9799    2.5530    2.1019 C.ar    1  UNL1        0.0000
     61 C           5.1508    1.8276    2.3175 C.ar    1  UNL1        0.0000
     62 H           5.4527    1.6053    3.3339 H       1  UNL1        0.0000
     63 C           5.9194    1.4016    1.2531 C.ar    1  UNL1        0.0000
     64 H           6.8213    0.8338    1.4311 H       1  UNL1        0.0000
     65 C           5.5371    1.7091   -0.0433 C.ar    1  UNL1        0.0000
     66 H           6.1407    1.3840   -0.8779 H       1  UNL1        0.0000
     67 C           4.3814    2.4365   -0.2654 C.ar    1  UNL1        0.0000
     68 H           4.0821    2.6807   -1.2746 H       1  UNL1        0.0000
     69 C           3.6046    2.8560    0.8002 C.ar    1  UNL1        0.0000
     70 H           2.7035    3.4193    0.6101 H       1  UNL1        0.0000
     71 C           4.9621    5.6881    1.6426 C.ar    1  UNL1        0.0000
     72 C           6.0954    4.9321    1.9184 C.ar    1  UNL1        0.0000
     73 H           6.2374    4.5470    2.9260 H       1  UNL1        0.0000
     74 C           7.0194    4.6694    0.9249 C.ar    1  UNL1        0.0000
     75 H           7.8954    4.0761    1.1428 H       1  UNL1        0.0000
     76 C           6.8149    5.1648   -0.3522 C.ar    1  UNL1        0.0000
     77 H           7.5307    4.9550   -1.1334 H       1  UNL1        0.0000
     78 C           5.6952    5.9329   -0.6288 C.ar    1  UNL1        0.0000
     79 H           5.5436    6.3259   -1.6239 H       1  UNL1        0.0000
     80 C           4.7708    6.1987    0.3644 C.ar    1  UNL1        0.0000
     81 H           3.8998    6.8028    0.1510 H       1  UNL1        0.0000
     82 C           4.0888    7.7477    3.3126 C.ar    1  UNL1        0.0000
     83 C           5.4062    8.2003    3.3245 C.ar    1  UNL1        0.0000
     84 H           6.2085    7.5103    3.0977 H       1  UNL1        0.0000
     85 C           5.6897    9.5188    3.6248 C.ar    1  UNL1        0.0000
     86 H           6.7144    9.8623    3.6249 H       1  UNL1        0.0000
     87 C           4.6632   10.3991    3.9279 C.ar    1  UNL1        0.0000
     88 H           4.8851   11.4298    4.1625 H       1  UNL1        0.0000
     89 C           3.3531    9.9522    3.9349 C.ar    1  UNL1        0.0000
     90 H           2.5504   10.6319    4.1817 H       1  UNL1        0.0000
     91 C           3.0663    8.6328    3.6354 C.ar    1  UNL1        0.0000
     92 H           2.0418    8.2916    3.6591 H       1  UNL1        0.0000
     93 C           5.5081    4.8414    7.2872 C.ar    1  UNL1        0.0000
     94 C           6.3249    5.9258    7.6777 C.ar    1  UNL1        0.0000
     95 H           6.6776    6.6064    6.9157 H       1  UNL1        0.0000
     96 C           6.6737    6.1108    8.9935 C.ar    1  UNL1        0.0000
     97 H           7.2941    6.9544    9.2638 H       1  UNL1        0.0000
     98 C           6.2530    5.2279    9.9855 C.ar    1  UNL1        0.0000
     99 C           5.4727    4.1410    9.6070 C.ar    1  UNL1        0.0000
    100 H           5.1465    3.4335   10.3573 H       1  UNL1        0.0000
    101 C           5.1019    3.9439    8.2964 C.ar    1  UNL1        0.0000
    102 H           4.4996    3.0887    8.0286 H       1  UNL1        0.0000
    103 C           6.6240    5.4523   11.4191 C.3     1  UNL1        0.0000
    104 H           5.9056    6.1252   11.8912 H       1  UNL1        0.0000
    105 H           7.6094    5.9078   11.4982 H       1  UNL1        0.0000
    106 H           6.6223    4.5155   11.9725 H       1  UNL1        0.0000
@<TRIPOS>BOND
     1    79    78    1
     2    68    67    1
     3    77    76    1
     4    66    65    1
     5    15    14    1
     6    78    76   ar
     7    78    80   ar
     8    76    74   ar
     9    67    65   ar
    10    67    69   ar
    11    65    63   ar
    12    81    80    1
    13    14    12   ar
    14    14    16   ar
    15    13    12    1
    16    80    71   ar
    17    17    16    1
    18    70    69    1
    19    69    60   ar
    20    12    10   ar
    21    74    75    1
    22    74    72   ar
    23    16     7   ar
    24    63    64    1
    25    63    61   ar
    26    26    24    1
    27    71    72   ar
    28    71     4    1
    29    72    73    1
    30    25    24    1
    31    60    61   ar
    32    60     3    1
    33    22    21    1
    34    10    11    1
    35    10     8   ar
    36    24     4    1
    37    24     5    1
    38    61    62    1
    39     7     8   ar
    40     7     5    1
    41    59    58    1
    42     8     9    1
    43     4    82    1
    44     4     1    1
    45    84    83    1
    46     5    21    1
    47     5    18    1
    48    21     3    1
    49    21    23    1
    50    82    83   ar
    51    82    91   ar
    52    83    85   ar
    53     3    49    1
    54     3     1    1
    55    85    86    1
    56    85    87   ar
    57    91    92    1
    58    91    89   ar
    59    58    49   ar
    60    58    56   ar
    61    87    89   ar
    62    87    88    1
    63    89    90    1
    64    57    56    1
    65    49    50   ar
    66    56    54   ar
    67    18    20    1
    68    18    19    1
    69    18     2    1
    70     1     2    1
    71     1     6    1
    72    50    51    1
    73    50    52   ar
    74     2    27    1
    75     2    38    1
    76    54    55    1
    77    54    52   ar
    78    48    47    1
    79     6    93    1
    80    29    28    1
    81    52    53    1
    82    27    28   ar
    83    27    36   ar
    84    28    30   ar
    85    95    94    1
    86    47    38   ar
    87    47    45   ar
    88    36    37    1
    89    36    34   ar
    90    30    31    1
    91    30    32   ar
    92    38    39   ar
    93    93    94   ar
    94    93   101   ar
    95    94    96   ar
    96    34    32   ar
    97    34    35    1
    98    32    33    1
    99    46    45    1
   100   102   101    1
   101    45    43   ar
   102   101    99   ar
   103    39    40    1
   104    39    41   ar
   105    96    97    1
   106    96    98   ar
   107    43    41   ar
   108    43    44    1
   109    41    42    1
   110    99    98   ar
   111    99   100    1
   112    98   103    1
   113   103   105    1
   114   103   104    1
   115   103   106    1
