@<TRIPOS>MOLECULE
CSD_code = LUMYEY | q = 0 | S = 0 | Stoichiometry = C44H64CoN3 | MND = 8
 112 117 0 0 0
SMALL
GASTEIGER

@<TRIPOS>ATOM
      1 CO         15.3089    5.6373   -3.2257 Co.oh   1  UNL1        0.0000
      2 N          15.5441    7.4932   -3.7099 N.pl3   1  UNL1        0.0000
      3 N          15.0513    5.9355   -5.0964 N.pl3   1  UNL1        0.0000
      4 N          15.2903    8.1622   -6.0294 N.3     1  UNL1        0.0000
      5 C          15.2924    7.2389   -4.9940 C.3     1  UNL1        0.0000
      6 C          15.4146    8.6667   -2.9781 C.ar    1  UNL1        0.0000
      7 C          14.2065    9.4010   -2.9409 C.ar    1  UNL1        0.0000
      8 C          14.1630   10.5773   -2.2124 C.ar    1  UNL1        0.0000
      9 H          13.2531   11.1548   -2.1750 H       1  UNL1        0.0000
     10 C          15.2696   11.0392   -1.5218 C.ar    1  UNL1        0.0000
     11 H          15.2196   11.9741   -0.9829 H       1  UNL1        0.0000
     12 C          16.4259   10.2842   -1.4996 C.ar    1  UNL1        0.0000
     13 H          17.2735   10.6365   -0.9319 H       1  UNL1        0.0000
     14 C          16.5093    9.0880   -2.1933 C.ar    1  UNL1        0.0000
     15 C          12.9720    8.8651   -3.6342 C.3     1  UNL1        0.0000
     16 H          13.2757    8.4706   -4.6063 H       1  UNL1        0.0000
     17 C          12.4068    7.6948   -2.8249 C.3     1  UNL1        0.0000
     18 H          13.1456    6.8944   -2.7828 H       1  UNL1        0.0000
     19 H          11.5047    7.3099   -3.2958 H       1  UNL1        0.0000
     20 H          12.1681    8.0123   -1.8117 H       1  UNL1        0.0000
     21 C          11.8764    9.9053   -3.8665 C.3     1  UNL1        0.0000
     22 H          11.4031   10.1900   -2.9294 H       1  UNL1        0.0000
     23 H          11.1073    9.4842   -4.5122 H       1  UNL1        0.0000
     24 H          12.2695   10.8000   -4.3450 H       1  UNL1        0.0000
     25 C          17.7564    8.2361   -2.1130 C.3     1  UNL1        0.0000
     26 H          17.4606    7.2158   -2.3787 H       1  UNL1        0.0000
     27 C          18.3566    8.2329   -0.7053 C.3     1  UNL1        0.0000
     28 H          19.1077    7.4493   -0.6173 H       1  UNL1        0.0000
     29 H          17.5879    8.0657    0.0463 H       1  UNL1        0.0000
     30 H          18.8468    9.1786   -0.4860 H       1  UNL1        0.0000
     31 C          18.8151    8.6792   -3.1235 C.3     1  UNL1        0.0000
     32 H          18.4460    8.5460   -4.1355 H       1  UNL1        0.0000
     33 H          19.7173    8.0811   -3.0071 H       1  UNL1        0.0000
     34 H          19.0766    9.7253   -2.9728 H       1  UNL1        0.0000
     35 C          15.1101    5.0561   -6.1689 C.ar    1  UNL1        0.0000
     36 C          13.9809    4.2512   -6.4323 C.ar    1  UNL1        0.0000
     37 C          14.0064    3.3821   -7.5106 C.ar    1  UNL1        0.0000
     38 H          13.1345    2.7897   -7.7425 H       1  UNL1        0.0000
     39 C          15.1357    3.2593   -8.2968 C.ar    1  UNL1        0.0000
     40 H          15.1413    2.5814   -9.1380 H       1  UNL1        0.0000
     41 C          16.2706    3.9889   -7.9882 C.ar    1  UNL1        0.0000
     42 H          17.1553    3.8454   -8.5879 H       1  UNL1        0.0000
     43 C          16.2860    4.8869   -6.9347 C.ar    1  UNL1        0.0000
     44 C          12.7609    4.3409   -5.5430 C.3     1  UNL1        0.0000
     45 H          13.0962    4.7410   -4.5807 H       1  UNL1        0.0000
     46 C          11.7237    5.3154   -6.1031 C.3     1  UNL1        0.0000
     47 H          12.1284    6.3220   -6.1279 H       1  UNL1        0.0000
     48 H          10.8363    5.3179   -5.4729 H       1  UNL1        0.0000
     49 H          11.4274    5.0252   -7.1098 H       1  UNL1        0.0000
     50 C          12.1078    2.9765   -5.3100 C.3     1  UNL1        0.0000
     51 H          11.5319    2.6642   -6.1784 H       1  UNL1        0.0000
     52 H          11.4263    3.0312   -4.4631 H       1  UNL1        0.0000
     53 H          12.8543    2.2122   -5.1054 H       1  UNL1        0.0000
     54 C          17.5433    5.6443   -6.5624 C.3     1  UNL1        0.0000
     55 H          17.2588    6.6745   -6.3349 H       1  UNL1        0.0000
     56 C          18.1431    5.0471   -5.2868 C.3     1  UNL1        0.0000
     57 H          18.3606    3.9900   -5.4280 H       1  UNL1        0.0000
     58 H          17.4351    5.1598   -4.4648 H       1  UNL1        0.0000
     59 H          19.0633    5.5648   -5.0232 H       1  UNL1        0.0000
     60 C          18.6046    5.6783   -7.6617 C.3     1  UNL1        0.0000
     61 H          19.3962    6.3712   -7.3803 H       1  UNL1        0.0000
     62 H          18.1858    6.0075   -8.6105 H       1  UNL1        0.0000
     63 H          19.0552    4.6979   -7.8002 H       1  UNL1        0.0000
     64 C          15.9580    9.4478   -5.8219 C.3     1  UNL1        0.0000
     65 H          16.1979    9.4776   -4.7579 H       1  UNL1        0.0000
     66 C          17.2984    9.6140   -6.5576 C.3     1  UNL1        0.0000
     67 H          17.9272    8.7362   -6.3986 H       1  UNL1        0.0000
     68 H          17.1485    9.7295   -7.6292 H       1  UNL1        0.0000
     69 C          18.0091   10.8614   -6.0324 C.3     1  UNL1        0.0000
     70 H          18.2117   10.7480   -4.9669 H       1  UNL1        0.0000
     71 H          18.9658   10.9791   -6.5464 H       1  UNL1        0.0000
     72 C          17.1497   12.1040   -6.2389 C.3     1  UNL1        0.0000
     73 H          17.6595   12.9795   -5.8318 H       1  UNL1        0.0000
     74 H          17.0008   12.2725   -7.3085 H       1  UNL1        0.0000
     75 C          15.7953   11.9240   -5.5615 C.3     1  UNL1        0.0000
     76 H          15.1712   12.8032   -5.7371 H       1  UNL1        0.0000
     77 H          15.9319   11.8198   -4.4827 H       1  UNL1        0.0000
     78 C          15.0972   10.6807   -6.1063 C.3     1  UNL1        0.0000
     79 H          14.1220   10.5693   -5.6362 H       1  UNL1        0.0000
     80 H          14.9595   10.8074   -7.1809 H       1  UNL1        0.0000
     81 C          14.6233    7.8098   -7.2838 C.3     1  UNL1        0.0000
     82 H          14.3868    6.7481   -7.1932 H       1  UNL1        0.0000
     83 C          13.2813    8.5184   -7.5358 C.3     1  UNL1        0.0000
     84 H          13.4307    9.5672   -7.7852 H       1  UNL1        0.0000
     85 H          12.6537    8.4729   -6.6448 H       1  UNL1        0.0000
     86 C          12.5691    7.8396   -8.7058 C.3     1  UNL1        0.0000
     87 H          12.3751    6.7943   -8.4618 H       1  UNL1        0.0000
     88 H          11.6081    8.3286   -8.8809 H       1  UNL1        0.0000
     89 C          13.4221    7.8999   -9.9683 C.3     1  UNL1        0.0000
     90 H          12.9138    7.3832  -10.7850 H       1  UNL1        0.0000
     91 H          13.5591    8.9422  -10.2676 H       1  UNL1        0.0000
     92 C          14.7841    7.2632   -9.7131 C.3     1  UNL1        0.0000
     93 H          15.4048    7.3409  -10.6087 H       1  UNL1        0.0000
     94 H          14.6593    6.2026   -9.4823 H       1  UNL1        0.0000
     95 C          15.4789    7.9583   -8.5447 C.3     1  UNL1        0.0000
     96 H          16.4611    7.5175   -8.3865 H       1  UNL1        0.0000
     97 H          15.6016    9.0127   -8.7961 H       1  UNL1        0.0000
     98 C          16.8491    4.3807   -1.8275 C.2     1  UNL1        0.0000
     99 C          16.0335    5.3161   -1.1633 C.3     1  UNL1        0.0000
    100 H          16.4890    6.0077   -0.4673 H       1  UNL1        0.0000
    101 C          14.6345    5.2399   -1.2212 C.3     1  UNL1        0.0000
    102 H          14.0399    5.8671   -0.5701 H       1  UNL1        0.0000
    103 C          14.0258    4.2807   -2.0387 C.2     1  UNL1        0.0000
    104 H          12.9523    4.1506   -2.0351 H       1  UNL1        0.0000
    105 C          14.8360    3.4735   -2.8399 C.2     1  UNL1        0.0000
    106 H          14.3873    2.7308   -3.4841 H       1  UNL1        0.0000
    107 C          16.2322    3.4936   -2.7046 C.2     1  UNL1        0.0000
    108 H          16.8256    2.7718   -3.2495 H       1  UNL1        0.0000
    109 C          18.3223    4.3129   -1.5644 C.3     1  UNL1        0.0000
    110 H          18.7252    5.2967   -1.3387 H       1  UNL1        0.0000
    111 H          18.8522    3.9017   -2.4207 H       1  UNL1        0.0000
    112 H          18.5094    3.6665   -0.7047 H       1  UNL1        0.0000
@<TRIPOS>BOND
     1    90    89    1
     2    93    92    1
     3    91    89    1
     4    89    92    1
     5    89    86    1
     6    92    94    1
     7    92    95    1
     8    40    39    1
     9    88    86    1
    10    97    95    1
    11    86    87    1
    12    86    83    1
    13    62    60    1
    14    42    41    1
    15    95    96    1
    16    95    81    1
    17    39    41   ar
    18    39    37   ar
    19    41    43   ar
    20    63    60    1
    21    84    83    1
    22    38    37    1
    23    60    61    1
    24    60    54    1
    25    68    66    1
    26    83    81    1
    27    83    85    1
    28    37    36   ar
    29    74    72    1
    30    81    82    1
    31    81     4    1
    32    80    78    1
    33    49    46    1
    34    43    54    1
    35    43    35   ar
    36    54    55    1
    37    54    56    1
    38    66    67    1
    39    66    69    1
    40    66    64    1
    41    71    69    1
    42    36    35   ar
    43    36    44    1
    44    72    69    1
    45    72    73    1
    46    72    75    1
    47    51    50    1
    48    35     3    1
    49    47    46    1
    50    78    64    1
    51    78    79    1
    52    78    75    1
    53    46    44    1
    54    46    48    1
    55    69    70    1
    56     4    64    1
    57     4     5    1
    58    64    65    1
    59    76    75    1
    60    75    77    1
    61    44    50    1
    62    44    45    1
    63    57    56    1
    64    50    53    1
    65    50    52    1
    66    56    59    1
    67    56    58    1
    68     3     5    1
    69     3     1    1
    70     5     2    1
    71    16    15    1
    72    23    21    1
    73    24    21    1
    74    32    31    1
    75    21    15    1
    76    21    22    1
    77     2     1    1
    78     2     6    1
    79    15     7    1
    80    15    17    1
    81   106   105    1
    82    19    17    1
    83   108   107    1
    84     1   101    1
    85    31    33    1
    86    31    34    1
    87    31    25    1
    88     6     7   ar
    89     6    14   ar
    90     7     8   ar
    91   105   107    1
    92   105   103    2
    93    17    18    1
    94    17    20    1
    95   107    98    2
    96   111   109    1
    97    26    25    1
    98     8     9    1
    99     8    10   ar
   100    14    25    1
   101    14    12   ar
   102    25    27    1
   103   103   104    1
   104   103   101    1
   105    98   109    1
   106    98    99    1
   107   109   110    1
   108   109   112    1
   109    10    12   ar
   110    10    11    1
   111    12    13    1
   112   101    99    1
   113   101   102    1
   114    99   100    1
   115    27    28    1
   116    27    30    1
   117    27    29    1
