@<TRIPOS>MOLECULE
CSD_code = MAKPIX | q = 1 | S = 0 | Stoichiometry = C5H17Cl2CoN3O(1+) | MND = 6
 29 29 0 0 0
SMALL
GASTEIGER

@<TRIPOS>ATOM
      1 CO          1.4493    4.0924   12.2146 Co.oh   1  UNL1        0.0000
      2 CL          3.1269    5.5078   12.5591 Cl      1  UNL1        0.0000
      3 CL         -0.2487    2.7168   12.0183 Cl      1  UNL1        0.0000
      4 N           0.1668    5.5776   12.4212 N.4     1  UNL1        0.0000
      5 H          -0.7626    5.1599   12.5258 H       1  UNL1        0.0000
      6 H           0.3289    6.1842   13.2256 H       1  UNL1        0.0000
      7 N           1.4774    4.5288   10.3421 N.4     1  UNL1        0.0000
      8 H           2.3203    5.1137   10.2906 H       1  UNL1        0.0000
      9 N           2.7376    2.6381   12.0328 N.4     1  UNL1        0.0000
     10 H           3.6603    3.0747   12.1252 H       1  UNL1        0.0000
     11 H           2.6135    2.0427   12.8551 H       1  UNL1        0.0000
     12 C           0.1926    6.3829   11.1915 C.3     1  UNL1        0.0000
     13 H           1.0678    7.0366   11.2235 H       1  UNL1        0.0000
     14 H          -0.7070    6.9952   11.0844 H       1  UNL1        0.0000
     15 C           0.3226    5.3929   10.0444 C.3     1  UNL1        0.0000
     16 H           0.4552    5.9054    9.0869 H       1  UNL1        0.0000
     17 H          -0.5685    4.7619    9.9918 H       1  UNL1        0.0000
     18 C           1.6123    3.4605    9.3448 C.3     1  UNL1        0.0000
     19 H           1.6593    3.9121    8.3480 H       1  UNL1        0.0000
     20 H           0.7222    2.8296    9.3984 H       1  UNL1        0.0000
     21 C           2.8583    2.6144    9.5751 C.3     1  UNL1        0.0000
     22 H           3.7414    3.2543    9.6356 H       1  UNL1        0.0000
     23 H           2.9867    1.9466    8.7241 H       1  UNL1        0.0000
     24 C           2.7343    1.7786   10.8426 C.3     1  UNL1        0.0000
     25 H           1.7968    1.2191   10.8242 H       1  UNL1        0.0000
     26 H           3.5641    1.0666   10.8954 H       1  UNL1        0.0000
     27 O           1.4526    3.6835   14.2340 O.3     2  HOH2        0.0000
     28 H           0.6522    3.3336   14.6471 H       0  HOH0        0.0000
     29 H           1.8804    4.3043   14.8380 H       0  HOH0        0.0000
@<TRIPOS>BOND
     1    19    18    1
     2    23    21    1
     3    16    15    1
     4    18    20    1
     5    18    21    1
     6    18     7    1
     7    21    22    1
     8    21    24    1
     9    17    15    1
    10    15     7    1
    11    15    12    1
    12     8     7    1
    13     7     1    1
    14    25    24    1
    15    24    26    1
    16    24     9    1
    17    14    12    1
    18    12    13    1
    19    12     4    1
    20     3     1    1
    21     9    10    1
    22     9     1    1
    23     9    11    1
    24     1     4    1
    25     1     2    1
    26     4     5    1
    27     4     6    1
    28    27    28    1
    29    27    29    1
