@<TRIPOS>MOLECULE
CSD_code = MAKPUJ | q = 1 | S = 0 | Stoichiometry = C5H18Cl2CoN4(1+) | MND = 6
 30 31 0 0 0
SMALL
GASTEIGER

@<TRIPOS>ATOM
      1 CO          0.4852   13.8312    2.8140 Co.oh   1  UNL1        0.0000
      2 CL         -1.1556   12.3871    2.3759 Cl      1  UNL1        0.0000
      3 CL          2.1310   15.2046    3.3088 Cl      1  UNL1        0.0000
      4 N           1.7880   12.6041    1.9911 N.4     1  UNL1        0.0000
      5 H           2.7199   12.9429    2.2474 H       1  UNL1        0.0000
      6 H           1.7151   11.6311    2.2889 H       1  UNL1        0.0000
      7 N           0.2744   14.5822    1.0207 N.4     1  UNL1        0.0000
      8 H          -0.5649   14.0868    0.6979 H       1  UNL1        0.0000
      9 N          -0.8605   15.0513    3.5767 N.4     1  UNL1        0.0000
     10 H          -1.7550   14.5842    3.3932 H       1  UNL1        0.0000
     11 H          -0.7510   15.0881    4.5909 H       1  UNL1        0.0000
     12 N           0.7243   12.9781    4.6212 N.4     1  UNL1        0.0000
     13 H           1.1498   13.6343    5.2785 H       1  UNL1        0.0000
     14 H           1.3343   12.1610    4.6092 H       1  UNL1        0.0000
     15 H          -0.1628   12.6558    5.0102 H       1  UNL1        0.0000
     16 C           1.6452   12.6648    0.5285 C.3     1  UNL1        0.0000
     17 H           0.7800   12.0627    0.2399 H       1  UNL1        0.0000
     18 H           2.5324   12.2825    0.0159 H       1  UNL1        0.0000
     19 C           1.3998   14.1257    0.1896 C.3     1  UNL1        0.0000
     20 H           1.1818   14.2587   -0.8745 H       1  UNL1        0.0000
     21 H           2.2781   14.7224    0.4498 H       1  UNL1        0.0000
     22 C           0.0406   16.0189    0.8388 C.3     1  UNL1        0.0000
     23 H           0.9256   16.5548    1.1893 H       1  UNL1        0.0000
     24 H          -0.0917   16.2273   -0.2287 H       1  UNL1        0.0000
     25 C          -1.1860   16.4977    1.6034 C.3     1  UNL1        0.0000
     26 H          -1.3936   17.5282    1.3175 H       1  UNL1        0.0000
     27 H          -2.0560   15.8936    1.3353 H       1  UNL1        0.0000
     28 C          -0.9591   16.4426    3.1073 C.3     1  UNL1        0.0000
     29 H          -0.0289   16.9559    3.3594 H       1  UNL1        0.0000
     30 H          -1.7858   16.9455    3.6198 H       1  UNL1        0.0000
@<TRIPOS>BOND
     1    20    19    1
     2    24    22    1
     3    18    16    1
     4    19    21    1
     5    19    16    1
     6    19     7    1
     7    17    16    1
     8    16     4    1
     9     8     7    1
    10    22     7    1
    11    22    23    1
    12    22    25    1
    13     7     1    1
    14    26    25    1
    15    27    25    1
    16    25    28    1
    17     4     5    1
    18     4     6    1
    19     4     1    1
    20     2     1    1
    21     1     3    1
    22     1     9    1
    23     1    12    1
    24    28    29    1
    25    28     9    1
    26    28    30    1
    27    10     9    1
    28     9    11    1
    29    14    12    1
    30    12    15    1
    31    12    13    1
