@<TRIPOS>MOLECULE
CSD_code = MAKQAQ | q = 1 | S = 0 | Stoichiometry = C6H17Cl2CoN3O(1+) | MND = 6
 30 31 0 0 0
SMALL
GASTEIGER

@<TRIPOS>ATOM
      1 CO          5.9199   13.9142    1.2485 Co.oh   1  UNL1        0.0000
      2 CL          4.4220   15.3895    1.2697 Cl      1  UNL1        0.0000
      3 CL          7.5445   12.5527    1.7449 Cl      1  UNL1        0.0000
      4 N           7.2642   15.2010    0.4855 N.4     1  UNL1        0.0000
      5 N           6.2508   14.5649    3.2887 N.4     1  UNL1        0.0000
      6 N           4.5993   12.4883    1.7675 N.4     1  UNL1        0.0000
      7 O           5.7627   13.3667   -0.2348 O.3     1  UNL1        0.0000
      8 C           7.5450   16.4924    1.1303 C.3     1  UNL1        0.0000
      9 C           7.9219   16.3020    2.5952 C.3     1  UNL1        0.0000
     10 C           6.7222   15.9524    3.4690 C.3     1  UNL1        0.0000
     11 C           5.1503   14.3203    4.2419 C.3     1  UNL1        0.0000
     12 C           4.6240   12.8897    4.2040 C.3     1  UNL1        0.0000
     13 C           3.7672   12.6130    2.9736 C.3     1  UNL1        0.0000
     14 H           6.9570   15.3545   -0.4818 H       1  UNL1        0.0000
     15 H           8.1418   14.6753    0.4152 H       1  UNL1        0.0000
     16 H           6.6601   17.1278    1.0534 H       1  UNL1        0.0000
     17 H           8.3690   16.9824    0.6005 H       1  UNL1        0.0000
     18 H           8.6919   15.5326    2.6854 H       1  UNL1        0.0000
     19 H           8.3438   17.2369    2.9636 H       1  UNL1        0.0000
     20 H           5.8929   16.6254    3.2407 H       1  UNL1        0.0000
     21 H           6.9983   16.0990    4.5195 H       1  UNL1        0.0000
     22 H           7.0232   13.9597    3.5828 H       1  UNL1        0.0000
     23 H           5.5051   14.5378    5.2560 H       1  UNL1        0.0000
     24 H           4.3404   15.0158    4.0112 H       1  UNL1        0.0000
     25 H           4.0088   12.7351    5.0902 H       1  UNL1        0.0000
     26 H           5.4535   12.1805    4.2483 H       1  UNL1        0.0000
     27 H           3.2085   11.6819    3.1174 H       1  UNL1        0.0000
     28 H           3.0515   13.4252    2.8289 H       1  UNL1        0.0000
     29 H           5.1424   11.6213    1.8348 H       1  UNL1        0.0000
     30 H           3.9999   12.3739    0.9422 H       1  UNL1        0.0000
@<TRIPOS>BOND
     1    14     4    1
     2     7     1    1
     3    15     4    1
     4     4     8    1
     5     4     1    1
     6    17     8    1
     7    30     6    1
     8    16     8    1
     9     8     9    1
    10     1     2    1
    11     1     3    1
    12     1     6    1
    13     1     5    1
    14     6    29    1
    15     6    13    1
    16     9    18    1
    17     9    19    1
    18     9    10    1
    19    28    13    1
    20    13    27    1
    21    13    12    1
    22    20    10    1
    23     5    10    1
    24     5    22    1
    25     5    11    1
    26    10    21    1
    27    24    11    1
    28    12    11    1
    29    12    26    1
    30    12    25    1
    31    11    23    1
