@<TRIPOS>MOLECULE
CSD_code = MAXDAS | q = 1 | S = 0 | Stoichiometry = C24H29CoN7O(1+) | MND = 6
 62 67 0 0 0
SMALL
GASTEIGER

@<TRIPOS>ATOM
      1 CO          0.9026   21.4279    1.1803 Co.oh   1  UNL1        0.0000
      2 H           0.9296   19.6288    2.9791 H       1  UNL1        0.0000
      3 H           2.7295   20.7322    3.0414 H       1  UNL1        0.0000
      4 N           1.2954   20.0095    0.0365 N.3     1  UNL1        0.0000
      5 N           0.1357   20.0092    2.4588 N.pl3   1  UNL1        0.0000
      6 N           0.5398   22.9541    2.4647 N.4     1  UNL1        0.0000
      7 H           0.5794   23.7770    1.8608 H       1  UNL1        0.0000
      8 H          -0.3876   22.9514    2.8890 H       1  UNL1        0.0000
      9 N           2.8135   21.3862    2.2620 N.pl3   1  UNL1        0.0000
     10 N          -0.7344   21.6730    0.3761 N.2     1  UNL1        0.0000
     11 N          -0.9454   21.8410   -0.7691 N.2     1  UNL1        0.0000
     12 N          -1.3043   21.9945   -1.8298 N.2     1  UNL1        0.0000
     13 O           1.6520   22.7010    0.1042 O.3     1  UNL1        0.0000
     14 C           1.9781   22.5616   -1.1430 C.ar    1  UNL1        0.0000
     15 C           2.1963   23.7445   -1.8828 C.ar    1  UNL1        0.0000
     16 H           2.0354   24.6830   -1.3748 H       1  UNL1        0.0000
     17 C           2.5915   23.7045   -3.1924 C.ar    1  UNL1        0.0000
     18 H           2.7465   24.6237   -3.7357 H       1  UNL1        0.0000
     19 C           2.7725   22.4762   -3.8298 C.ar    1  UNL1        0.0000
     20 H           3.0534   22.4448   -4.8700 H       1  UNL1        0.0000
     21 C           2.5766   21.3114   -3.1362 C.ar    1  UNL1        0.0000
     22 H           2.6845   20.3798   -3.6659 H       1  UNL1        0.0000
     23 C           2.1865   21.3053   -1.7807 C.ar    1  UNL1        0.0000
     24 C           1.9394   20.0662   -1.0960 C.3     1  UNL1        0.0000
     25 C           2.4316   18.7995   -1.7344 C.3     1  UNL1        0.0000
     26 H           2.6801   18.0542   -0.9840 H       1  UNL1        0.0000
     27 H           3.3262   18.9940   -2.3161 H       1  UNL1        0.0000
     28 H           1.6694   18.3868   -2.3956 H       1  UNL1        0.0000
     29 C           0.8607   18.7183    0.5559 C.3     1  UNL1        0.0000
     30 H           1.6956   18.2184    1.0658 H       1  UNL1        0.0000
     31 H           0.5126   18.0723   -0.2544 H       1  UNL1        0.0000
     32 C          -0.2859   18.9453    1.5356 C.3     1  UNL1        0.0000
     33 H          -1.1725   19.2793    0.9966 H       1  UNL1        0.0000
     34 H          -0.5251   18.0202    2.0729 H       1  UNL1        0.0000
     35 C          -0.8428   20.3800    3.4429 C.ar    1  UNL1        0.0000
     36 C          -0.5149   20.2834    4.7909 C.ar    1  UNL1        0.0000
     37 H           0.4531   19.9008    5.0901 H       1  UNL1        0.0000
     38 C          -1.4277   20.6598    5.7612 C.ar    1  UNL1        0.0000
     39 H          -1.1644   20.5757    6.8039 H       1  UNL1        0.0000
     40 C          -2.6763   21.1298    5.3917 C.ar    1  UNL1        0.0000
     41 H          -3.3903   21.4161    6.1471 H       1  UNL1        0.0000
     42 C          -3.0051   21.2265    4.0491 C.ar    1  UNL1        0.0000
     43 H          -3.9769   21.5912    3.7562 H       1  UNL1        0.0000
     44 C          -2.0957   20.8559    3.0741 C.ar    1  UNL1        0.0000
     45 H          -2.3459   20.9564    2.0309 H       1  UNL1        0.0000
     46 C           4.5353   21.7392    0.5197 C.ar    1  UNL1        0.0000
     47 H           4.2825   22.7821    0.4286 H       1  UNL1        0.0000
     48 C           5.5006   21.2076   -0.3171 C.ar    1  UNL1        0.0000
     49 H           5.9850   21.8498   -1.0358 H       1  UNL1        0.0000
     50 C           5.8462   19.8700   -0.2372 C.ar    1  UNL1        0.0000
     51 H           6.5994   19.4624   -0.8923 H       1  UNL1        0.0000
     52 C           5.2280   19.0608    0.7008 C.ar    1  UNL1        0.0000
     53 H           5.5026   18.0207    0.7879 H       1  UNL1        0.0000
     54 C           4.2616   19.5864    1.5375 C.ar    1  UNL1        0.0000
     55 H           3.7931   18.9483    2.2771 H       1  UNL1        0.0000
     56 C           3.8923   20.9259    1.4445 C.ar    1  UNL1        0.0000
     57 C           2.9183   22.7336    2.8361 C.3     1  UNL1        0.0000
     58 H           3.1000   23.4447    2.0306 H       1  UNL1        0.0000
     59 H           3.7396   22.7972    3.5592 H       1  UNL1        0.0000
     60 C           1.5819   23.0687    3.4918 C.3     1  UNL1        0.0000
     61 H           1.3622   22.3594    4.2960 H       1  UNL1        0.0000
     62 H           1.6203   24.0733    3.9257 H       1  UNL1        0.0000
@<TRIPOS>BOND
     1    20    19    1
     2    19    17   ar
     3    19    21   ar
     4    18    17    1
     5    22    21    1
     6    17    15   ar
     7    21    23   ar
     8    28    25    1
     9    27    25    1
    10    15    16    1
    11    15    14   ar
    12    12    11    2
    13    23    14   ar
    14    23    24    1
    15    25    24    1
    16    25    26    1
    17    14    13    1
    18    24     4    1
    19    49    48    1
    20    51    50    1
    21    11    10    2
    22    48    50   ar
    23    48    46   ar
    24    31    29    1
    25    50    52   ar
    26     4    29    1
    27     4     1    1
    28    13     1    1
    29    10     1    1
    30    47    46    1
    31    46    56   ar
    32    29    30    1
    33    29    32    1
    34    52    53    1
    35    52    54   ar
    36    33    32    1
    37     1     9    1
    38     1     5    1
    39     1     6    1
    40    56    54   ar
    41    56     9    1
    42    32    34    1
    43    32     5    1
    44    54    55    1
    45     7     6    1
    46    58    57    1
    47    45    44    1
    48     9    57    1
    49     9     3    1
    50     5     2    1
    51     5    35    1
    52     6     8    1
    53     6    60    1
    54    57    60    1
    55    57    59    1
    56    44    35   ar
    57    44    42   ar
    58    35    36   ar
    59    60    62    1
    60    60    61    1
    61    43    42    1
    62    42    40   ar
    63    36    37    1
    64    36    38   ar
    65    40    38   ar
    66    40    41    1
    67    38    39    1
