@<TRIPOS>MOLECULE
CSD_code = MEGDOR | q = 1 | S = 0 | Stoichiometry = C46H46CoN6O4(1+) | MND = 6
 103 112 0 0 0
SMALL
GASTEIGER

@<TRIPOS>ATOM
      1 CO          8.8131    9.2144   -2.9179 Co.oh   1  UNL1        0.0000
      2 O           2.5772    9.3517   -0.7584 O.3     1  UNL1        0.0000
      3 O          12.5679   13.4704    1.1501 O.3     1  UNL1        0.0000
      4 O          10.6921   13.9058   -7.7650 O.3     1  UNL1        0.0000
      5 O          11.6145    3.4865   -4.5573 O.3     1  UNL1        0.0000
      6 N           7.1706    8.7611   -3.8014 N.pl3   1  UNL1        0.0000
      7 N           9.5262    8.6232   -4.4559 N.pl3   1  UNL1        0.0000
      8 N          10.9055    9.9469   -2.7821 N.pl3   1  UNL1        0.0000
      9 N           8.6075   11.4905   -3.2469 N.pl3   1  UNL1        0.0000
     10 N           8.0797    9.8134   -1.3693 N.pl3   1  UNL1        0.0000
     11 N           9.1356    7.6258   -1.8406 N.pl3   1  UNL1        0.0000
     12 C           1.8391   10.5521   -0.7220 C.3     1  UNL1        0.0000
     13 H           1.0199   10.3711   -0.0289 H       1  UNL1        0.0000
     14 H           1.4311   10.8017   -1.7059 H       1  UNL1        0.0000
     15 H           2.4466   11.3851   -0.3546 H       1  UNL1        0.0000
     16 C           3.6597    9.2704   -1.5659 C.ar    1  UNL1        0.0000
     17 C           4.1503   10.3045   -2.3606 C.ar    1  UNL1        0.0000
     18 H           3.6542   11.2613   -2.3911 H       1  UNL1        0.0000
     19 C           5.2882   10.1164   -3.1217 C.ar    1  UNL1        0.0000
     20 H           5.6703   10.9213   -3.7311 H       1  UNL1        0.0000
     21 C           5.9512    8.8933   -3.1256 C.ar    1  UNL1        0.0000
     22 C           5.4398    7.8485   -2.3514 C.ar    1  UNL1        0.0000
     23 H           5.9436    6.8934   -2.3480 H       1  UNL1        0.0000
     24 C           4.3193    8.0382   -1.5765 C.ar    1  UNL1        0.0000
     25 H           3.9231    7.2428   -0.9657 H       1  UNL1        0.0000
     26 C           7.3457    7.9454   -4.8137 C.2     1  UNL1        0.0000
     27 C           6.2588    7.1631   -5.4769 C.3     1  UNL1        0.0000
     28 H           6.4782    6.0967   -5.4423 H       1  UNL1        0.0000
     29 H           6.1803    7.4527   -6.5244 H       1  UNL1        0.0000
     30 H           5.3024    7.3444   -4.9934 H       1  UNL1        0.0000
     31 C           8.7014    7.9245   -5.2807 C.2     1  UNL1        0.0000
     32 C           9.1890    7.3132   -6.4370 C.2     1  UNL1        0.0000
     33 H           8.5231    6.7511   -7.0715 H       1  UNL1        0.0000
     34 C          10.5254    7.4488   -6.7526 C.2     1  UNL1        0.0000
     35 H          10.9252    6.9957   -7.6459 H       1  UNL1        0.0000
     36 C          11.3593    8.1753   -5.9070 C.2     1  UNL1        0.0000
     37 H          12.4040    8.2856   -6.1442 H       1  UNL1        0.0000
     38 C          10.8339    8.7461   -4.7560 C.2     1  UNL1        0.0000
     39 C          11.6008    9.4859   -3.7616 C.3     1  UNL1        0.0000
     40 C          13.0875    9.5903   -3.8953 C.3     1  UNL1        0.0000
     41 H          13.3475   10.2347   -4.7340 H       1  UNL1        0.0000
     42 H          13.5129    8.6058   -4.0815 H       1  UNL1        0.0000
     43 H          13.5270   10.0015   -2.9899 H       1  UNL1        0.0000
     44 C          11.3943   10.7749   -1.7854 C.ar    1  UNL1        0.0000
     45 C          12.0703   11.9623   -2.0901 C.ar    1  UNL1        0.0000
     46 H          12.2654   12.2099   -3.1225 H       1  UNL1        0.0000
     47 C          12.4324   12.8350   -1.0910 C.ar    1  UNL1        0.0000
     48 H          12.9408   13.7583   -1.3188 H       1  UNL1        0.0000
     49 C          12.1594   12.5445    0.2492 C.ar    1  UNL1        0.0000
     50 C          11.4953   11.3592    0.5578 C.ar    1  UNL1        0.0000
     51 H          11.2728   11.0989    1.5804 H       1  UNL1        0.0000
     52 C          11.1086   10.4973   -0.4499 C.ar    1  UNL1        0.0000
     53 H          10.6000    9.5774   -0.2035 H       1  UNL1        0.0000
     54 C          12.3620   13.2256    2.5221 C.3     1  UNL1        0.0000
     55 H          12.7906   14.0814    3.0402 H       1  UNL1        0.0000
     56 H          12.8719   12.3139    2.8475 H       1  UNL1        0.0000
     57 H          11.2964   13.1541    2.7620 H       1  UNL1        0.0000
     58 C          11.4267   15.1080   -7.7235 C.3     1  UNL1        0.0000
     59 H          11.6912   15.3260   -8.7564 H       1  UNL1        0.0000
     60 H          12.3412   14.9998   -7.1319 H       1  UNL1        0.0000
     61 H          10.8268   15.9304   -7.3226 H       1  UNL1        0.0000
     62 C          10.1944   13.4016   -6.6108 C.ar    1  UNL1        0.0000
     63 C           9.4363   12.2309   -6.7319 C.ar    1  UNL1        0.0000
     64 H           9.2907   11.8191   -7.7178 H       1  UNL1        0.0000
     65 C           8.8973   11.6249   -5.6239 C.ar    1  UNL1        0.0000
     66 H           8.3069   10.7271   -5.7258 H       1  UNL1        0.0000
     67 C           9.0713   12.1792   -4.3503 C.ar    1  UNL1        0.0000
     68 C           9.8247   13.3483   -4.2334 C.ar    1  UNL1        0.0000
     69 H          10.0128   13.7629   -3.2544 H       1  UNL1        0.0000
     70 C          10.3897   13.9462   -5.3444 C.ar    1  UNL1        0.0000
     71 H          10.9798   14.8387   -5.2094 H       1  UNL1        0.0000
     72 C           7.9697   12.0042   -2.2585 C.2     1  UNL1        0.0000
     73 C           7.4351   13.4031   -2.2038 C.3     1  UNL1        0.0000
     74 H           7.9913   13.9949   -1.4780 H       1  UNL1        0.0000
     75 H           6.3891   13.3924   -1.9036 H       1  UNL1        0.0000
     76 H           7.5189   13.8796   -3.1775 H       1  UNL1        0.0000
     77 C           7.7005   11.0877   -1.1537 C.2     1  UNL1        0.0000
     78 C           7.0760   11.4591    0.0303 C.2     1  UNL1        0.0000
     79 H           6.7888   12.4837    0.1976 H       1  UNL1        0.0000
     80 C           6.8139   10.4965    1.0001 C.2     1  UNL1        0.0000
     81 H           6.3198   10.7723    1.9183 H       1  UNL1        0.0000
     82 C           7.1899    9.1889    0.7727 C.2     1  UNL1        0.0000
     83 H           6.9934    8.4211    1.5029 H       1  UNL1        0.0000
     84 C           7.8419    8.8701   -0.4193 C.2     1  UNL1        0.0000
     85 C           8.3637    7.5818   -0.7857 C.3     1  UNL1        0.0000
     86 C           8.0942    6.3554    0.0250 C.3     1  UNL1        0.0000
     87 H           7.0236    6.1663    0.0896 H       1  UNL1        0.0000
     88 H           8.4704    6.4906    1.0387 H       1  UNL1        0.0000
     89 H           8.5847    5.4898   -0.4129 H       1  UNL1        0.0000
     90 C           9.7164    6.5017   -2.4354 C.ar    1  UNL1        0.0000
     91 C          11.1087    6.4063   -2.5042 C.ar    1  UNL1        0.0000
     92 H          11.7103    7.1423   -1.9934 H       1  UNL1        0.0000
     93 C          11.7018    5.3825   -3.2026 C.ar    1  UNL1        0.0000
     94 H          12.7748    5.2921   -3.2549 H       1  UNL1        0.0000
     95 C          10.9268    4.4287   -3.8722 C.ar    1  UNL1        0.0000
     96 C           9.5398    4.5147   -3.7970 C.ar    1  UNL1        0.0000
     97 H           8.9112    3.7921   -4.2926 H       1  UNL1        0.0000
     98 C           8.9461    5.5364   -3.0781 C.ar    1  UNL1        0.0000
     99 H           7.8686    5.6009   -3.0364 H       1  UNL1        0.0000
    100 C          10.9019    2.4722   -5.2283 C.3     1  UNL1        0.0000
    101 H          10.2988    1.8797   -4.5341 H       1  UNL1        0.0000
    102 H          11.6577    1.8339   -5.6818 H       1  UNL1        0.0000
    103 H          10.2595    2.8853   -6.0123 H       1  UNL1        0.0000
@<TRIPOS>BOND
     1    59    58    1
     2     4    58    1
     3     4    62    1
     4    58    61    1
     5    58    60    1
     6    64    63    1
     7    35    34    1
     8    33    32    1
     9    34    32    2
    10    34    36    1
    11    63    62   ar
    12    63    65   ar
    13    62    70   ar
    14    29    27    1
    15    32    31    1
    16    37    36    1
    17   103   100    1
    18    36    38    2
    19    66    65    1
    20   102   100    1
    21    65    67   ar
    22    27    28    1
    23    27    30    1
    24    27    26    1
    25    70    71    1
    26    70    68   ar
    27    31    26    2
    28    31     7    1
    29   100     5    1
    30   100   101    1
    31    26     6    1
    32    38     7    1
    33    38    39    1
    34    41    40    1
    35     5    95    1
    36     7     1    1
    37    67    68   ar
    38    67     9    1
    39    97    96    1
    40    68    69    1
    41    42    40    1
    42    40    39    1
    43    40    43    1
    44    95    96   ar
    45    95    93   ar
    46     6    21    1
    47     6     1    1
    48    96    98   ar
    49    39     8    1
    50    20    19    1
    51    94    93    1
    52     9     1    1
    53     9    72    1
    54    93    91   ar
    55    76    73    1
    56    21    19   ar
    57    21    22   ar
    58    46    45    1
    59    19    17   ar
    60    98    99    1
    61    98    90   ar
    62     1     8    1
    63     1    11    1
    64     1    10    1
    65     8    44    1
    66    91    90   ar
    67    91    92    1
    68    90    11    1
    69    18    17    1
    70    17    16   ar
    71    22    23    1
    72    22    24   ar
    73    72    73    1
    74    72    77    2
    75    73    75    1
    76    73    74    1
    77    45    44   ar
    78    45    47   ar
    79    11    85    1
    80    44    52   ar
    81    14    12    1
    82    24    16   ar
    83    24    25    1
    84    16     2    1
    85    10    77    1
    86    10    84    1
    87    48    47    1
    88    77    78    1
    89    47    49   ar
    90    85    84    1
    91    85    86    1
    92     2    12    1
    93    12    15    1
    94    12    13    1
    95    52    53    1
    96    52    50   ar
    97    84    82    2
    98    89    86    1
    99    86    87    1
   100    86    88    1
   101    78    79    1
   102    78    80    2
   103    49    50   ar
   104    49     3    1
   105    50    51    1
   106    82    80    1
   107    82    83    1
   108    80    81    1
   109     3    54    1
   110    54    57    1
   111    54    56    1
   112    54    55    1
