@<TRIPOS>MOLECULE
CSD_code = MEMQEA | q = 0 | S = 0 | Stoichiometry = C42H39CoNOP3 | MND = 4
 87 94 0 0 0
SMALL
GASTEIGER

@<TRIPOS>ATOM
      1 CO         -1.1124   13.5045   11.4991 Co.oh   1  UNL1        0.0000
      2 P          -3.1200   12.6248   11.7665 P.3     1  UNL1        0.0000
      3 P          -0.6446   12.6891    9.4249 P.3     1  UNL1        0.0000
      4 P          -2.0393   15.1801   10.5556 P.3     1  UNL1        0.0000
      5 O           0.9454   10.7293   13.7771 O.2     1  UNL1        0.0000
      6 N          -0.0639   12.4770   12.5623 N.2     1  UNL1        0.0000
      7 C          -3.7387   12.2835   10.0524 C.3     1  UNL1        0.0000
      8 H          -3.2829   11.3328    9.7568 H       1  UNL1        0.0000
      9 H          -4.8222   12.1404   10.1101 H       1  UNL1        0.0000
     10 C          -2.0616   13.1004    8.2953 C.3     1  UNL1        0.0000
     11 H          -1.7950   14.0230    7.7713 H       1  UNL1        0.0000
     12 H          -2.1409   12.2938    7.5589 H       1  UNL1        0.0000
     13 C          -3.5053   14.7589    9.5258 C.3     1  UNL1        0.0000
     14 H          -4.3866   14.8396   10.1714 H       1  UNL1        0.0000
     15 H          -3.6066   15.4709    8.7011 H       1  UNL1        0.0000
     16 C          -3.4258   13.3308    8.9681 C.3     1  UNL1        0.0000
     17 C          -4.5001   13.1951    7.8756 C.3     1  UNL1        0.0000
     18 H          -4.5562   12.1681    7.5194 H       1  UNL1        0.0000
     19 H          -4.2688   13.8369    7.0271 H       1  UNL1        0.0000
     20 H          -5.4781   13.4795    8.2606 H       1  UNL1        0.0000
     21 C           0.4195   11.5789   13.1559 C.1     1  UNL1        0.0000
     22 C          -4.4344   13.6434   12.5330 C.ar    1  UNL1        0.0000
     23 C          -4.0016   14.6174   13.4260 C.ar    1  UNL1        0.0000
     24 H          -2.9389   14.7123   13.6149 H       1  UNL1        0.0000
     25 C          -4.9073   15.4465   14.0611 C.ar    1  UNL1        0.0000
     26 H          -4.5580   16.2058   14.7453 H       1  UNL1        0.0000
     27 C          -6.2609   15.3037   13.8088 C.ar    1  UNL1        0.0000
     28 H          -6.9745   15.9544   14.2925 H       1  UNL1        0.0000
     29 C          -6.7031   14.3150   12.9437 C.ar    1  UNL1        0.0000
     30 H          -7.7615   14.1911   12.7632 H       1  UNL1        0.0000
     31 C          -5.7976   13.4814   12.3129 C.ar    1  UNL1        0.0000
     32 H          -6.1595   12.7018   11.6569 H       1  UNL1        0.0000
     33 C          -3.4898   11.0536   12.6203 C.ar    1  UNL1        0.0000
     34 C          -3.0333   11.0086   13.9365 C.ar    1  UNL1        0.0000
     35 H          -2.5242   11.8750   14.3389 H       1  UNL1        0.0000
     36 C          -3.2032    9.8733   14.7027 C.ar    1  UNL1        0.0000
     37 H          -2.8390    9.8460   15.7188 H       1  UNL1        0.0000
     38 C          -3.8280    8.7627   14.1568 C.ar    1  UNL1        0.0000
     39 H          -3.9551    7.8675   14.7475 H       1  UNL1        0.0000
     40 C          -4.2805    8.7990   12.8491 C.ar    1  UNL1        0.0000
     41 H          -4.7638    7.9319   12.4213 H       1  UNL1        0.0000
     42 C          -4.1140    9.9370   12.0781 C.ar    1  UNL1        0.0000
     43 H          -4.4683    9.9366   11.0581 H       1  UNL1        0.0000
     44 C          -0.6641   10.8625    9.2690 C.ar    1  UNL1        0.0000
     45 C          -0.9943   10.0803   10.3676 C.ar    1  UNL1        0.0000
     46 H          -1.1948   10.5597   11.3157 H       1  UNL1        0.0000
     47 C          -1.0531    8.7024   10.2560 C.ar    1  UNL1        0.0000
     48 H          -1.3132    8.1075   11.1191 H       1  UNL1        0.0000
     49 C          -0.7731    8.0951    9.0439 C.ar    1  UNL1        0.0000
     50 H          -0.8137    7.0195    8.9531 H       1  UNL1        0.0000
     51 C          -0.4317    8.8691    7.9452 C.ar    1  UNL1        0.0000
     52 H          -0.2042    8.3956    7.0007 H       1  UNL1        0.0000
     53 C          -0.3779   10.2460    8.0534 C.ar    1  UNL1        0.0000
     54 H          -0.1022   10.8458    7.1960 H       1  UNL1        0.0000
     55 C           0.8073   13.0178    8.3710 C.ar    1  UNL1        0.0000
     56 C           2.0040   12.5830    8.9437 C.ar    1  UNL1        0.0000
     57 H           1.9630   12.0690    9.8968 H       1  UNL1        0.0000
     58 C           3.2110   12.8086    8.3157 C.ar    1  UNL1        0.0000
     59 H           4.1296   12.4615    8.7659 H       1  UNL1        0.0000
     60 C           3.2423   13.4906    7.1081 C.ar    1  UNL1        0.0000
     61 H           4.1846   13.6754    6.6136 H       1  UNL1        0.0000
     62 C           2.0624   13.9390    6.5412 C.ar    1  UNL1        0.0000
     63 H           2.0839   14.4748    5.6027 H       1  UNL1        0.0000
     64 C           0.8486   13.7085    7.1664 C.ar    1  UNL1        0.0000
     65 H          -0.0545   14.0726    6.6992 H       1  UNL1        0.0000
     66 C          -0.8923   16.0685    9.4418 C.ar    1  UNL1        0.0000
     67 C           0.4608   15.8584    9.6867 C.ar    1  UNL1        0.0000
     68 H           0.7514   15.1752   10.4811 H       1  UNL1        0.0000
     69 C           1.4208   16.4992    8.9264 C.ar    1  UNL1        0.0000
     70 H           2.4689   16.3230    9.1175 H       1  UNL1        0.0000
     71 C           1.0312   17.3574    7.9120 C.ar    1  UNL1        0.0000
     72 H           1.7757   17.8523    7.3060 H       1  UNL1        0.0000
     73 C          -0.3148   17.5908    7.6787 C.ar    1  UNL1        0.0000
     74 H          -0.6164   18.2734    6.8969 H       1  UNL1        0.0000
     75 C          -1.2765   16.9590    8.4462 C.ar    1  UNL1        0.0000
     76 H          -2.3232   17.1676    8.2697 H       1  UNL1        0.0000
     77 C          -2.6164   16.6374   11.4919 C.ar    1  UNL1        0.0000
     78 C          -1.7730   17.0204   12.5324 C.ar    1  UNL1        0.0000
     79 H          -0.8801   16.4330   12.7218 H       1  UNL1        0.0000
     80 C          -2.0778   18.1122   13.3202 C.ar    1  UNL1        0.0000
     81 H          -1.4206   18.4001   14.1278 H       1  UNL1        0.0000
     82 C          -3.2362   18.8329   13.0746 C.ar    1  UNL1        0.0000
     83 H          -3.4850   19.6840   13.6915 H       1  UNL1        0.0000
     84 C          -4.0759   18.4606   12.0391 C.ar    1  UNL1        0.0000
     85 H          -4.9782   19.0239   11.8480 H       1  UNL1        0.0000
     86 C          -3.7696   17.3694   11.2442 C.ar    1  UNL1        0.0000
     87 H          -4.4380   17.0959   10.4413 H       1  UNL1        0.0000
@<TRIPOS>BOND
     1    63    62    1
     2    62    60   ar
     3    62    64   ar
     4    61    60    1
     5    65    64    1
     6    74    73    1
     7    52    51    1
     8    19    17    1
     9    60    58   ar
    10    64    55   ar
    11    54    53    1
    12    72    71    1
    13    18    17    1
    14    12    10    1
    15    73    71   ar
    16    73    75   ar
    17    11    10    1
    18    17    20    1
    19    17    16    1
    20    71    69   ar
    21    51    53   ar
    22    51    49   ar
    23    53    44   ar
    24    76    75    1
    25    10    16    1
    26    10     3    1
    27    58    59    1
    28    58    56   ar
    29    55    56   ar
    30    55     3    1
    31    75    66   ar
    32    15    13    1
    33    69    70    1
    34    69    67   ar
    35    56    57    1
    36    50    49    1
    37    16    13    1
    38    16     7    1
    39    49    47   ar
    40    44     3    1
    41    44    45   ar
    42     3     1    1
    43    66    67   ar
    44    66     4    1
    45    13    14    1
    46    13     4    1
    47    67    68    1
    48     8     7    1
    49     7     9    1
    50     7     2    1
    51    47    45   ar
    52    47    48    1
    53    45    46    1
    54    87    86    1
    55     4    77    1
    56     4     1    1
    57    43    42    1
    58    86    77   ar
    59    86    84   ar
    60    77    78   ar
    61     1     2    1
    62     1     6    1
    63    32    31    1
    64     2    22    1
    65     2    33    1
    66    85    84    1
    67    84    82   ar
    68    42    33   ar
    69    42    40   ar
    70    31    22   ar
    71    31    29   ar
    72    41    40    1
    73    78    79    1
    74    78    80   ar
    75    22    23   ar
    76     6    21    2
    77    33    34   ar
    78    30    29    1
    79    40    38   ar
    80    29    27   ar
    81    82    80   ar
    82    82    83    1
    83    21     5    2
    84    80    81    1
    85    23    24    1
    86    23    25   ar
    87    27    25   ar
    88    27    28    1
    89    34    35    1
    90    34    36   ar
    91    25    26    1
    92    38    36   ar
    93    38    39    1
    94    36    37    1
