@<TRIPOS>MOLECULE
CSD_code = MEXGED | q = 1 | S = 0 | Stoichiometry = C16H18CoN8O2(1+) | MND = 6
 45 50 0 0 0
SMALL
GASTEIGER

@<TRIPOS>ATOM
      1 CO          5.2981    3.7101   16.3617 Co.oh   1  UNL1        0.0000
      2 C           7.2572    1.7112   15.9933 C.ar    1  UNL1        0.0000
      3 O           6.5934    2.7039   15.5016 O.3     1  UNL1        0.0000
      4 C           7.1363    1.2222   17.3297 C.ar    1  UNL1        0.0000
      5 C           6.2138    1.7869   18.2430 C.3     1  UNL1        0.0000
      6 H           6.1294    1.3150   19.2224 H       1  UNL1        0.0000
      7 N           5.4748    2.8136   17.9801 N.3     1  UNL1        0.0000
      8 N           4.5758    3.2654   18.9119 N.3     1  UNL1        0.0000
      9 H           4.4293    2.7282   19.7599 H       1  UNL1        0.0000
     10 C           3.7226    4.2357   18.5015 C.3     1  UNL1        0.0000
     11 N           3.9371    4.7170   17.3162 N.3     1  UNL1        0.0000
     12 H           3.2988    5.4443   17.0205 H       1  UNL1        0.0000
     13 N           2.7847    4.6775   19.3679 N.3     1  UNL1        0.0000
     14 H           2.0866    5.3267   19.0496 H       1  UNL1        0.0000
     15 H           2.5931    4.1839   20.2216 H       1  UNL1        0.0000
     16 C           7.9294    0.1315   17.7454 C.ar    1  UNL1        0.0000
     17 H           7.8197   -0.2257   18.7592 H       1  UNL1        0.0000
     18 C           8.8207   -0.4669   16.8987 C.ar    1  UNL1        0.0000
     19 H           9.4218   -1.2978   17.2311 H       1  UNL1        0.0000
     20 C           8.9436    0.0065   15.5870 C.ar    1  UNL1        0.0000
     21 H           9.6421   -0.4669   14.9135 H       1  UNL1        0.0000
     22 C           8.1875    1.0589   15.1469 C.ar    1  UNL1        0.0000
     23 H           8.2735    1.4235   14.1350 H       1  UNL1        0.0000
     24 C           3.3350    2.3824   14.8279 C.ar    1  UNL1        0.0000
     25 O           3.9997    2.4613   15.9323 O.3     1  UNL1        0.0000
     26 C           3.4565    3.2858   13.7285 C.ar    1  UNL1        0.0000
     27 C           4.3805    4.3580   13.7513 C.3     1  UNL1        0.0000
     28 H           4.4646    4.9631   12.8480 H       1  UNL1        0.0000
     29 N           5.1212    4.6508   14.7686 N.3     1  UNL1        0.0000
     30 N           6.0209    5.6826   14.6850 N.3     1  UNL1        0.0000
     31 H           6.1687    6.1389   13.7910 H       1  UNL1        0.0000
     32 C           6.8762    5.8186   15.7279 C.3     1  UNL1        0.0000
     33 N           6.6624    5.0407   16.7437 N.3     1  UNL1        0.0000
     34 H           7.3020    5.1535   17.5196 H       1  UNL1        0.0000
     35 N           7.8153    6.7882   15.6684 N.3     1  UNL1        0.0000
     36 H           8.5145    6.8423   16.3883 H       1  UNL1        0.0000
     37 H           8.0050    7.2752   14.8105 H       1  UNL1        0.0000
     38 C           2.6623    3.0919   12.5782 C.ar    1  UNL1        0.0000
     39 H           2.7726    3.7841   11.7560 H       1  UNL1        0.0000
     40 C           1.7694    2.0600   12.4927 C.ar    1  UNL1        0.0000
     41 H           1.1675    1.9259   11.6085 H       1  UNL1        0.0000
     42 C           1.6457    1.1701   13.5663 C.ar    1  UNL1        0.0000
     43 H           0.9458    0.3507   13.5005 H       1  UNL1        0.0000
     44 C           2.4029    1.3236   14.6960 C.ar    1  UNL1        0.0000
     45 H           2.3163    0.6368   15.5236 H       1  UNL1        0.0000
@<TRIPOS>BOND
     1    41    40    1
     2    39    38    1
     3    40    38   ar
     4    40    42   ar
     5    38    26   ar
     6    28    27    1
     7    43    42    1
     8    42    44   ar
     9    26    27    1
    10    26    24   ar
    11    27    29    1
    12    31    30    1
    13    23    22    1
    14    30    29    1
    15    30    32    1
    16    44    24   ar
    17    44    45    1
    18    29     1    1
    19    37    35    1
    20    24    25    1
    21    21    20    1
    22    22    20   ar
    23    22     2   ar
    24     3     2    1
    25     3     1    1
    26    20    18   ar
    27    35    32    1
    28    35    36    1
    29    32    33    1
    30    25     1    1
    31     2     4   ar
    32     1    33    1
    33     1    11    1
    34     1     7    1
    35    33    34    1
    36    18    19    1
    37    18    16   ar
    38    12    11    1
    39    11    10    1
    40     4    16   ar
    41     4     5    1
    42    16    17    1
    43     7     5    1
    44     7     8    1
    45     5     6    1
    46    10     8    1
    47    10    13    1
    48     8     9    1
    49    14    13    1
    50    13    15    1
