@<TRIPOS>MOLECULE
CSD_code = MOKLON | q = 1 | S = 0 | Stoichiometry = C24H18CoN4S2(1+) | MND = 6
 49 56 0 0 0
SMALL
GASTEIGER

@<TRIPOS>ATOM
      1 CO          5.7057    9.0160    3.6895 Co.oh   1  UNL1        0.0000
      2 S           6.6127    7.6648    5.2684 S.3     1  UNL1        0.0000
      3 S           3.8348    9.1685    4.9617 S.3     1  UNL1        0.0000
      4 N           6.4427   10.4528    4.5861 N.pl3   1  UNL1        0.0000
      5 N           4.9670   10.3541    2.4910 N.pl3   1  UNL1        0.0000
      6 N           4.9456    7.5510    2.8606 N.pl3   1  UNL1        0.0000
      7 N           7.2365    8.6611    2.5492 N.pl3   1  UNL1        0.0000
      8 C           7.3620    8.9342    6.1503 C.ar    1  UNL1        0.0000
      9 C           8.1182    8.6565    7.2931 C.ar    1  UNL1        0.0000
     10 C           8.7053    9.6823    7.9924 C.ar    1  UNL1        0.0000
     11 C           8.5523   11.0068    7.5688 C.ar    1  UNL1        0.0000
     12 C           7.8125   11.3007    6.4519 C.ar    1  UNL1        0.0000
     13 C           7.1990   10.2695    5.7155 C.ar    1  UNL1        0.0000
     14 C           6.1424   11.6108    4.0698 C.2     1  UNL1        0.0000
     15 C           5.3218   11.5932    2.9040 C.2     1  UNL1        0.0000
     16 C           4.8870   12.7406    2.2313 C.2     1  UNL1        0.0000
     17 C           4.0728   12.6028    1.1271 C.2     1  UNL1        0.0000
     18 C           3.7154   11.3230    0.7148 C.2     1  UNL1        0.0000
     19 C           4.1855   10.2322    1.4247 C.2     1  UNL1        0.0000
     20 C           3.0419    7.8277    4.2378 C.ar    1  UNL1        0.0000
     21 C           1.7668    7.4412    4.6619 C.ar    1  UNL1        0.0000
     22 C           1.1493    6.3612    4.0805 C.ar    1  UNL1        0.0000
     23 C           1.7874    5.6433    3.0633 C.ar    1  UNL1        0.0000
     24 C           3.0388    6.0051    2.6340 C.ar    1  UNL1        0.0000
     25 C           3.6964    7.1073    3.2125 C.ar    1  UNL1        0.0000
     26 C           5.7143    6.9869    1.9724 C.2     1  UNL1        0.0000
     27 C           6.9970    7.5770    1.7752 C.2     1  UNL1        0.0000
     28 C           7.9588    7.0879    0.8841 C.2     1  UNL1        0.0000
     29 C           9.1810    7.7210    0.8024 C.2     1  UNL1        0.0000
     30 C           9.4143    8.8318    1.6068 C.2     1  UNL1        0.0000
     31 C           8.4154    9.2653    2.4608 C.2     1  UNL1        0.0000
     32 H           8.2240    7.6304    7.6081 H       1  UNL1        0.0000
     33 H           9.2870    9.4677    8.8750 H       1  UNL1        0.0000
     34 H           9.0186   11.8029    8.1273 H       1  UNL1        0.0000
     35 H           7.7058   12.3279    6.1418 H       1  UNL1        0.0000
     36 H           6.4623   12.5518    4.4961 H       1  UNL1        0.0000
     37 H           5.1874   13.7118    2.5901 H       1  UNL1        0.0000
     38 H           3.7159   13.4697    0.5939 H       1  UNL1        0.0000
     39 H           3.0784   11.1712   -0.1406 H       1  UNL1        0.0000
     40 H           3.9146    9.2297    1.1231 H       1  UNL1        0.0000
     41 H           1.2900    8.0031    5.4495 H       1  UNL1        0.0000
     42 H           0.1671    6.0613    4.4104 H       1  UNL1        0.0000
     43 H           1.2915    4.7966    2.6159 H       1  UNL1        0.0000
     44 H           3.5149    5.4379    1.8502 H       1  UNL1        0.0000
     45 H           5.4328    6.0999    1.4213 H       1  UNL1        0.0000
     46 H           7.7338    6.2213    0.2837 H       1  UNL1        0.0000
     47 H           9.9445    7.3608    0.1313 H       1  UNL1        0.0000
     48 H          10.3571    9.3524    1.5778 H       1  UNL1        0.0000
     49 H           8.5795   10.1237    3.0975 H       1  UNL1        0.0000
@<TRIPOS>BOND
     1    39    18    1
     2    47    29    1
     3    46    28    1
     4    38    17    1
     5    18    17    1
     6    18    19    2
     7    29    28    2
     8    29    30    1
     9    28    27    1
    10    40    19    1
    11    17    16    2
    12    45    26    1
    13    19     5    1
    14    48    30    1
    15    30    31    2
    16    27    26    2
    17    27     7    1
    18    44    24    1
    19    26     6    1
    20    16    37    1
    21    16    15    1
    22    31     7    1
    23    31    49    1
    24     5    15    1
    25     5     1    1
    26     7     1    1
    27    43    23    1
    28    24    23   ar
    29    24    25   ar
    30     6    25    1
    31     6     1    1
    32    15    14    2
    33    23    22   ar
    34    25    20   ar
    35     1     4    1
    36     1     3    1
    37     1     2    1
    38    14    36    1
    39    14     4    1
    40    22    42    1
    41    22    21   ar
    42    20    21   ar
    43    20     3    1
    44     4    13    1
    45    21    41    1
    46     2     8    1
    47    13     8   ar
    48    13    12   ar
    49    35    12    1
    50     8     9   ar
    51    12    11   ar
    52     9    32    1
    53     9    10   ar
    54    11    10   ar
    55    11    34    1
    56    10    33    1
