@<TRIPOS>MOLECULE
CSD_code = MUGMEI | q = 1 | S = 0 | Stoichiometry = C20H22Cl2CoN6O2S2(1+) | MND = 6
 55 58 0 0 0
SMALL
GASTEIGER

@<TRIPOS>ATOM
      1 CO          7.7397    0.8399    5.5272 Co.oh   1  UNL1        0.0000
      2 H           5.4123   -0.2497    5.1105 H       1  UNL1        0.0000
      3 H          10.6488    4.0363    4.0592 H       1  UNL1        0.0000
      4 O           6.2852   -0.6687    5.0925 O.3     1  UNL1        0.0000
      5 S           9.3070    2.4096    5.5588 S.3     1  UNL1        0.0000
      6 N          10.2075    3.4709    3.3434 N.pl3   1  UNL1        0.0000
      7 N           8.7499    1.6794    3.0459 N.2     1  UNL1        0.0000
      8 N           7.9779    0.7845    3.6777 N.pl3   1  UNL1        0.0000
      9 C          11.2697    4.6190   -0.5223 C.ar    1  UNL1        0.0000
     10 C          11.8160    5.2585    0.5828 C.ar    1  UNL1        0.0000
     11 C          11.4491    4.8601    1.8519 C.ar    1  UNL1        0.0000
     12 C          10.5348    3.8224    2.0307 C.ar    1  UNL1        0.0000
     13 C           9.9894    3.1895    0.9180 C.ar    1  UNL1        0.0000
     14 C          10.3568    3.5873   -0.3531 C.ar    1  UNL1        0.0000
     15 C           9.4021    2.5072    3.8002 C.2     1  UNL1        0.0000
     16 C           7.4024   -0.1470    2.9998 C.3     1  UNL1        0.0000
     17 C           7.5732   -0.3065    1.5319 C.3     1  UNL1        0.0000
     18 C           6.5481   -1.1181    3.7636 C.3     1  UNL1        0.0000
     19 CL         11.7254    5.1109   -2.1090 Cl      1  UNL1        0.0000
     20 H          12.5221    6.0616    0.4469 H       1  UNL1        0.0000
     21 H          11.8742    5.3584    2.7110 H       1  UNL1        0.0000
     22 H           9.2778    2.3947    1.0591 H       1  UNL1        0.0000
     23 H           9.9348    3.0987   -1.2165 H       1  UNL1        0.0000
     24 H           7.1811   -1.2598    1.1924 H       1  UNL1        0.0000
     25 H           8.6273   -0.2233    1.2712 H       1  UNL1        0.0000
     26 H           7.0515    0.4995    1.0147 H       1  UNL1        0.0000
     27 H           7.0936   -2.0666    3.8585 H       1  UNL1        0.0000
     28 H           5.6161   -1.3127    3.2249 H       1  UNL1        0.0000
     29 H          10.0667   -0.2499    5.9439 H       1  UNL1        0.0000
     30 H           4.8302    4.0362    6.9952 H       1  UNL1        0.0000
     31 O           9.1938   -0.6690    5.9619 O.3     1  UNL1        0.0000
     32 S           6.1718    2.4092    5.4956 S.3     1  UNL1        0.0000
     33 N           5.2715    3.4709    7.7109 N.pl3   1  UNL1        0.0000
     34 N           6.7290    1.6793    8.0085 N.2     1  UNL1        0.0000
     35 N           7.5009    0.7843    7.3766 N.pl3   1  UNL1        0.0000
     36 C           4.2093    4.6190   11.5767 C.ar    1  UNL1        0.0000
     37 C           3.6630    5.2585   10.4716 C.ar    1  UNL1        0.0000
     38 C           4.0298    4.8601    9.2024 C.ar    1  UNL1        0.0000
     39 C           4.9442    3.8223    9.0237 C.ar    1  UNL1        0.0000
     40 C           5.4895    3.1895   10.1364 C.ar    1  UNL1        0.0000
     41 C           5.1221    3.5873   11.4074 C.ar    1  UNL1        0.0000
     42 C           6.0769    2.5072    7.2542 C.2     1  UNL1        0.0000
     43 C           8.0764   -0.1471    8.0546 C.3     1  UNL1        0.0000
     44 C           7.9057   -0.3065    9.5225 C.3     1  UNL1        0.0000
     45 C           8.9308   -1.1182    7.2908 C.3     1  UNL1        0.0000
     46 CL          3.7535    5.1109   13.1634 Cl      1  UNL1        0.0000
     47 H           2.9568    6.0616   10.6075 H       1  UNL1        0.0000
     48 H           3.6047    5.3584    8.3434 H       1  UNL1        0.0000
     49 H           6.2011    2.3947    9.9953 H       1  UNL1        0.0000
     50 H           5.5441    3.0987   12.2709 H       1  UNL1        0.0000
     51 H           8.2979   -1.2597    9.8621 H       1  UNL1        0.0000
     52 H           6.8517   -0.2233    9.7832 H       1  UNL1        0.0000
     53 H           8.4275    0.4995   10.0397 H       1  UNL1        0.0000
     54 H           8.3854   -2.0667    7.1960 H       1  UNL1        0.0000
     55 H           9.8629   -1.3127    7.8296 H       1  UNL1        0.0000
@<TRIPOS>BOND
     1    19     9    1
     2    23    14    1
     3     9    14   ar
     4     9    10   ar
     5    14    13   ar
     6    20    10    1
     7    10    11   ar
     8    13    22    1
     9    13    12   ar
    10    26    17    1
    11    24    17    1
    12    25    17    1
    13    17    16    1
    14    11    12   ar
    15    11    21    1
    16    12     6    1
    17    16     8    1
    18    16    18    1
    19     7     8    1
    20     7    15    2
    21    28    18    1
    22     6    15    1
    23     6     3    1
    24     8     1    1
    25    18    27    1
    26    18     4    1
    27    15     5    1
    28     4     2    1
    29    32     1    1
    30    32    42    1
    31     1     5    1
    32     1    35    1
    33    29    31    1
    34    31    45    1
    35    30    33    1
    36    54    45    1
    37    42    33    1
    38    42    34    2
    39    45    55    1
    40    45    43    1
    41    35    34    1
    42    35    43    1
    43    33    39    1
    44    43    44    1
    45    48    38    1
    46    39    38   ar
    47    39    40   ar
    48    38    37   ar
    49    44    52    1
    50    44    51    1
    51    44    53    1
    52    49    40    1
    53    40    41   ar
    54    37    47    1
    55    37    36   ar
    56    41    36   ar
    57    41    50    1
    58    36    46    1
