@<TRIPOS>MOLECULE
CSD_code = MUHBOH | q = 0 | S = 0 | Stoichiometry = C10H15CoN2S2 | MND = 7
 30 31 0 0 0
SMALL
GASTEIGER

@<TRIPOS>ATOM
      1 CO          2.7549    2.6437    2.4542 Co.oh   1  UNL1        0.0000
      2 N           2.1913    1.6993    3.8209 N.3     1  UNL1        0.0000
      3 S           3.1052    0.8242    4.7104 S.3     1  UNL1        0.0000
      4 N           4.5975    0.9564    4.1417 N.3     1  UNL1        0.0000
      5 S           4.7316    1.9290    2.8427 S.3     1  UNL1        0.0000
      6 C           3.1675    4.0135    0.9522 C.3     1  UNL1        0.0000
      7 C           2.4125    2.9296    0.4356 C.3     1  UNL1        0.0000
      8 C           1.1583    2.8821    1.1411 C.2     1  UNL1        0.0000
      9 C           1.1517    3.9322    2.0933 C.2     1  UNL1        0.0000
     10 C           2.4075    4.6215    1.9974 C.3     1  UNL1        0.0000
     11 C           4.4607    4.5183    0.3939 C.3     1  UNL1        0.0000
     12 H           5.0882    3.6974    0.0550 H       1  UNL1        0.0000
     13 H           5.0162    5.0841    1.1369 H       1  UNL1        0.0000
     14 H           4.2622    5.1717   -0.4573 H       1  UNL1        0.0000
     15 C           2.7592    2.1112   -0.7664 C.3     1  UNL1        0.0000
     16 H           2.3240    2.5721   -1.6554 H       1  UNL1        0.0000
     17 H           2.3660    1.1003   -0.6836 H       1  UNL1        0.0000
     18 H           3.8358    2.0537   -0.9053 H       1  UNL1        0.0000
     19 C          -0.0086    2.0138    0.8003 C.3     1  UNL1        0.0000
     20 H          -0.6016    1.8012    1.6858 H       1  UNL1        0.0000
     21 H           0.3132    1.0725    0.3622 H       1  UNL1        0.0000
     22 H          -0.6439    2.5285    0.0765 H       1  UNL1        0.0000
     23 C          -0.0217    4.3273    2.9302 C.3     1  UNL1        0.0000
     24 H          -0.7848    4.7826    2.2969 H       1  UNL1        0.0000
     25 H           0.2649    5.0427    3.6953 H       1  UNL1        0.0000
     26 H          -0.4559    3.4572    3.4169 H       1  UNL1        0.0000
     27 C           2.7599    5.8847    2.7155 C.3     1  UNL1        0.0000
     28 H           2.3386    6.7362    2.1773 H       1  UNL1        0.0000
     29 H           3.8375    6.0182    2.7726 H       1  UNL1        0.0000
     30 H           2.3584    5.8887    3.7263 H       1  UNL1        0.0000
@<TRIPOS>BOND
     1    16    15    1
     2    18    15    1
     3    15    17    1
     4    15     7    1
     5    14    11    1
     6    12    11    1
     7    22    19    1
     8    21    19    1
     9    11     6    1
    10    11    13    1
    11     7     6    1
    12     7     8    1
    13     7     1    1
    14    19     8    1
    15    19    20    1
    16     6    10    1
    17     8     9    2
    18    10     9    1
    19    10     1    1
    20    10    27    1
    21     9    23    1
    22    28    27    1
    23    24    23    1
    24     1     2    1
    25    27    29    1
    26    27    30    1
    27     5     4    1
    28    23    26    1
    29    23    25    1
    30     2     3    1
    31     4     3    1
