@<TRIPOS>MOLECULE
CSD_code = NABCIC | q = 1 | S = 0 | Stoichiometry = C44H43CoP3S(1+) | MND = 7
 92 96 0 0 0
SMALL
GASTEIGER

@<TRIPOS>ATOM
      1 CO          5.9309    0.8713   -3.8955 Co.oh   1  UNL1        0.0000
      2 S           6.2140    3.1593   -4.1807 S.2     1  UNL1        0.0000
      3 P           5.2275   -1.0625   -3.0749 P.3     2  UNL2        0.0000
      4 P           7.1114   -0.1778   -5.5195 P.3     2  UNL2        0.0000
      5 P           4.0871    0.8579   -5.1924 P.3     2  UNL2        0.0000
      6 C           5.1751   -2.3557   -4.3845 C.3     2  UNL2        0.0000
      7 H           6.1672   -2.8083   -4.4386 H       2  UNL2        0.0000
      8 H           4.4714   -3.1297   -4.0629 H       2  UNL2        0.0000
      9 C           5.9324   -1.1830   -6.5258 C.3     2  UNL2        0.0000
     10 H           5.5270   -0.5033   -7.2840 H       2  UNL2        0.0000
     11 H           6.5044   -1.9550   -7.0468 H       2  UNL2        0.0000
     12 C           3.5815   -0.8604   -5.6298 C.3     2  UNL2        0.0000
     13 H           2.9172   -1.2343   -4.8450 H       2  UNL2        0.0000
     14 H           3.0202   -0.8170   -6.5680 H       2  UNL2        0.0000
     15 C           4.7598   -1.8362   -5.7706 C.3     2  UNL2        0.0000
     16 C           4.2795   -3.0375   -6.5986 C.3     2  UNL2        0.0000
     17 H           5.0311   -3.8241   -6.6132 H       2  UNL2        0.0000
     18 H           4.0783   -2.7383   -7.6249 H       2  UNL2        0.0000
     19 H           3.3647   -3.4522   -6.1802 H       2  UNL2        0.0000
     20 C           6.2695    1.5955   -2.0103 C.3     1  UNL1        0.0000
     21 C           5.5559    2.5662   -2.7211 C.2     1  UNL1        0.0000
     22 C           7.4665    1.1105   -2.5844 C.3     1  UNL1        0.0000
     23 H           5.8635    1.1766   -1.0943 H       1  UNL1        0.0000
     24 H           4.6488    3.0222   -2.3391 H       1  UNL1        0.0000
     25 H           8.1394    1.8455   -3.0169 H       1  UNL1        0.0000
     26 H           7.9717    0.2912   -2.0860 H       1  UNL1        0.0000
     27 C           2.9803   -2.3484   -1.9888 C.ar    2  UNL2        0.0000
     28 C           1.7531   -2.3763   -1.3542 C.ar    2  UNL2        0.0000
     29 C           1.1194   -1.1934   -1.0028 C.ar    2  UNL2        0.0000
     30 C           1.7225    0.0209   -1.2782 C.ar    2  UNL2        0.0000
     31 C           2.9467    0.0527   -1.9238 C.ar    2  UNL2        0.0000
     32 C           3.5777   -1.1273   -2.2982 C.ar    2  UNL2        0.0000
     33 H           3.4810   -3.2780   -2.2221 H       2  UNL2        0.0000
     34 H           1.2936   -3.3250   -1.1218 H       2  UNL2        0.0000
     35 H           0.1636   -1.2223   -0.5033 H       2  UNL2        0.0000
     36 H           1.2431    0.9448   -0.9931 H       2  UNL2        0.0000
     37 H           3.4179    1.0013   -2.1376 H       2  UNL2        0.0000
     38 C           7.4260   -2.4803   -2.0408 C.ar    2  UNL2        0.0000
     39 C           8.1964   -2.9978   -1.0157 C.ar    2  UNL2        0.0000
     40 C           7.7879   -2.8638    0.3010 C.ar    2  UNL2        0.0000
     41 C           6.6059   -2.2014    0.5899 C.ar    2  UNL2        0.0000
     42 C           5.8319   -1.6818   -0.4311 C.ar    2  UNL2        0.0000
     43 C           6.2250   -1.8337   -1.7605 C.ar    2  UNL2        0.0000
     44 H           7.7738   -2.5747   -3.0573 H       2  UNL2        0.0000
     45 H           9.1218   -3.5019   -1.2497 H       2  UNL2        0.0000
     46 H           8.3904   -3.2683    1.0993 H       2  UNL2        0.0000
     47 H           6.2856   -2.0865    1.6142 H       2  UNL2        0.0000
     48 H           4.9119   -1.1662   -0.1929 H       2  UNL2        0.0000
     49 C           8.5734   -2.6544   -5.4789 C.ar    2  UNL2        0.0000
     50 C           9.7025   -3.3938   -5.1659 C.ar    2  UNL2        0.0000
     51 C          10.7697   -2.8033   -4.5124 C.ar    2  UNL2        0.0000
     52 C          10.7119   -1.4591   -4.1798 C.ar    2  UNL2        0.0000
     53 C           9.5880   -0.7197   -4.4911 C.ar    2  UNL2        0.0000
     54 C           8.5010   -1.3085   -5.1350 C.ar    2  UNL2        0.0000
     55 H           7.7625   -3.1511   -5.9916 H       2  UNL2        0.0000
     56 H           9.7448   -4.4378   -5.4381 H       2  UNL2        0.0000
     57 H          11.6449   -3.3860   -4.2706 H       2  UNL2        0.0000
     58 H          11.5448   -0.9880   -3.6808 H       2  UNL2        0.0000
     59 H           9.5482    0.3305   -4.2435 H       2  UNL2        0.0000
     60 C           8.6358    1.9525   -6.4330 C.ar    2  UNL2        0.0000
     61 C           9.3819    2.6658   -7.3524 C.ar    2  UNL2        0.0000
     62 C           9.5164    2.1951   -8.6478 C.ar    2  UNL2        0.0000
     63 C           8.9072    1.0069   -9.0155 C.ar    2  UNL2        0.0000
     64 C           8.1625    0.2871   -8.0985 C.ar    2  UNL2        0.0000
     65 C           8.0125    0.7636   -6.8002 C.ar    2  UNL2        0.0000
     66 H           8.5092    2.3383   -5.4315 H       2  UNL2        0.0000
     67 H           9.8538    3.5909   -7.0583 H       2  UNL2        0.0000
     68 H          10.0946    2.7515   -9.3693 H       2  UNL2        0.0000
     69 H           9.0139    0.6343  -10.0232 H       2  UNL2        0.0000
     70 H           7.7064   -0.6410   -8.4061 H       2  UNL2        0.0000
     71 C           1.3538    1.0006   -4.3441 C.ar    2  UNL2        0.0000
     72 C           0.2480    1.7339   -3.9482 C.ar    2  UNL2        0.0000
     73 C           0.3234    3.1110   -3.8280 C.ar    2  UNL2        0.0000
     74 C           1.5108    3.7657   -4.1167 C.ar    2  UNL2        0.0000
     75 C           2.6153    3.0412   -4.5194 C.ar    2  UNL2        0.0000
     76 C           2.5474    1.6518   -4.6311 C.ar    2  UNL2        0.0000
     77 H           1.2660   -0.0722   -4.4273 H       2  UNL2        0.0000
     78 H          -0.6781    1.2220   -3.7335 H       2  UNL2        0.0000
     79 H          -0.5425    3.6740   -3.5156 H       2  UNL2        0.0000
     80 H           1.5730    4.8401   -4.0330 H       2  UNL2        0.0000
     81 H           3.5406    3.5477   -4.7636 H       2  UNL2        0.0000
     82 C           3.0119    1.5875   -7.6449 C.ar    2  UNL2        0.0000
     83 C           3.0150    2.1723   -8.8959 C.ar    2  UNL2        0.0000
     84 C           4.1448    2.8328   -9.3559 C.ar    2  UNL2        0.0000
     85 C           5.2655    2.9233   -8.5500 C.ar    2  UNL2        0.0000
     86 C           5.2650    2.3419   -7.2935 C.ar    2  UNL2        0.0000
     87 C           4.1498    1.6533   -6.8404 C.ar    2  UNL2        0.0000
     88 H           2.1176    1.0960   -7.2853 H       2  UNL2        0.0000
     89 H           2.1307    2.1190   -9.5127 H       2  UNL2        0.0000
     90 H           4.1420    3.2865  -10.3349 H       2  UNL2        0.0000
     91 H           6.1438    3.4499   -8.8908 H       2  UNL2        0.0000
     92 H           6.1316    2.4400   -6.6593 H       2  UNL2        0.0000
@<TRIPOS>BOND
     1    90    84    1
     2    69    63    1
     3    89    83    1
     4    68    62    1
     5    84    83   ar
     6    84    85   ar
     7    63    62   ar
     8    63    64   ar
     9    83    82   ar
    10    91    85    1
    11    62    61   ar
    12    85    86   ar
    13    70    64    1
    14    64    65   ar
    15    82    88    1
    16    82    87   ar
    17    18    16    1
    18    61    67    1
    19    61    60   ar
    20    86    87   ar
    21    86    92    1
    22    10     9    1
    23    11     9    1
    24    87     5    1
    25    65    60   ar
    26    65     4    1
    27    17    16    1
    28    16    19    1
    29    16    15    1
    30    14    12    1
    31     9    15    1
    32     9     4    1
    33    60    66    1
    34    55    49    1
    35    15    12    1
    36    15     6    1
    37    12     5    1
    38    12    13    1
    39     4    54    1
    40    49    50   ar
    41    49    54   ar
    42    56    50    1
    43     5    76    1
    44    50    51   ar
    45    54    53   ar
    46    81    75    1
    47    76    75   ar
    48    76    71   ar
    49    75    74   ar
    50    51    57    1
    51    51    52   ar
    52    53    59    1
    53    53    52   ar
    54     7     6    1
    55    77    71    1
    56     6     8    1
    57     6     3    1
    58    71    72   ar
    59     2    21    2
    60    52    58    1
    61    74    80    1
    62    74    73   ar
    63    72    73   ar
    64    72    78    1
    65     1    22    1
    66    73    79    1
    67     3    32    1
    68     3    43    1
    69    44    38    1
    70    25    22    1
    71    21    24    1
    72    21    20    1
    73    22    26    1
    74    22    20    1
    75    32    27   ar
    76    32    31   ar
    77    33    27    1
    78    37    31    1
    79    38    43   ar
    80    38    39   ar
    81    20    23    1
    82    27    28   ar
    83    31    30   ar
    84    43    42   ar
    85    28    34    1
    86    28    29   ar
    87    30    29   ar
    88    30    36    1
    89    45    39    1
    90    39    40   ar
    91    29    35    1
    92    42    48    1
    93    42    41   ar
    94    40    41   ar
    95    40    46    1
    96    41    47    1
