@<TRIPOS>MOLECULE
CSD_code = NABGOM | q = 1 | S = 0 | Stoichiometry = C43H45CoN2P3(1+) | MND = 5
 94 98 0 0 0
SMALL
GASTEIGER

@<TRIPOS>ATOM
      1 CO         15.2757    5.9495   29.1632 Co.oh   1  UNL1        0.0000
      2 P          15.7675    8.1274   29.1838 P.3     2  UNL2        0.0000
      3 P          17.1165    5.6565   30.3563 P.3     2  UNL2        0.0000
      4 P          16.5621    5.5986   27.3141 P.3     2  UNL2        0.0000
      5 N          13.5103    5.5664   29.9100 N.3     1  UNL1        0.0000
      6 N          13.9402    5.0520   28.7721 N.3     1  UNL1        0.0000
      7 C          17.5657    8.5332   29.0998 C.3     2  UNL2        0.0000
      8 H          17.6710    9.4369   28.4912 H       2  UNL2        0.0000
      9 H          17.9121    8.7637   30.1108 H       2  UNL2        0.0000
     10 C          18.6581    6.3189   29.5772 C.3     2  UNL2        0.0000
     11 H          19.2974    6.7178   30.3710 H       2  UNL2        0.0000
     12 H          19.1696    5.4681   29.1192 H       2  UNL2        0.0000
     13 C          17.8885    6.8776   27.2017 C.3     2  UNL2        0.0000
     14 H          18.7036    6.4662   26.5996 H       2  UNL2        0.0000
     15 H          17.4482    7.7115   26.6420 H       2  UNL2        0.0000
     16 C          18.4520    7.4195   28.5269 C.3     2  UNL2        0.0000
     17 C          19.8275    8.0369   28.2264 C.3     2  UNL2        0.0000
     18 H          20.5413    7.2691   27.9346 H       2  UNL2        0.0000
     19 H          20.2218    8.5496   29.1016 H       2  UNL2        0.0000
     20 H          19.7540    8.7589   27.4158 H       2  UNL2        0.0000
     21 C          13.8837    9.7668   30.3582 C.ar    2  UNL2        0.0000
     22 C          13.3379   10.5652   31.3448 C.ar    2  UNL2        0.0000
     23 C          14.0647   10.8464   32.4908 C.ar    2  UNL2        0.0000
     24 C          15.3370   10.3223   32.6426 C.ar    2  UNL2        0.0000
     25 C          15.8866    9.5214   31.6573 C.ar    2  UNL2        0.0000
     26 C          15.1707    9.2465   30.4966 C.ar    2  UNL2        0.0000
     27 H          13.3164    9.5576   29.4609 H       2  UNL2        0.0000
     28 H          12.3451   10.9702   31.2188 H       2  UNL2        0.0000
     29 H          13.6406   11.4713   33.2614 H       2  UNL2        0.0000
     30 H          15.9081   10.5350   33.5338 H       2  UNL2        0.0000
     31 H          16.8760    9.1162   31.8103 H       2  UNL2        0.0000
     32 C          14.3844    8.3079   26.7678 C.ar    2  UNL2        0.0000
     33 C          13.9312    8.9463   25.6263 C.ar    2  UNL2        0.0000
     34 C          14.2144   10.2865   25.4287 C.ar    2  UNL2        0.0000
     35 C          14.9398   10.9907   26.3792 C.ar    2  UNL2        0.0000
     36 C          15.4005   10.3547   27.5157 C.ar    2  UNL2        0.0000
     37 C          15.1362    8.9999   27.7078 C.ar    2  UNL2        0.0000
     38 H          14.1573    7.2624   26.9330 H       2  UNL2        0.0000
     39 H          13.3593    8.3945   24.8957 H       2  UNL2        0.0000
     40 H          13.8644   10.7884   24.5399 H       2  UNL2        0.0000
     41 H          15.1453   12.0404   26.2326 H       2  UNL2        0.0000
     42 H          15.9502   10.9120   28.2627 H       2  UNL2        0.0000
     43 C          16.6618    2.9214   30.2852 C.ar    2  UNL2        0.0000
     44 C          16.9752    1.5843   30.4461 C.ar    2  UNL2        0.0000
     45 C          18.2285    1.2205   30.9059 C.ar    2  UNL2        0.0000
     46 C          19.1662    2.1974   31.2004 C.ar    2  UNL2        0.0000
     47 C          18.8546    3.5347   31.0441 C.ar    2  UNL2        0.0000
     48 C          17.5939    3.9068   30.5855 C.ar    2  UNL2        0.0000
     49 H          15.6953    3.2091   29.8902 H       2  UNL2        0.0000
     50 H          16.2437    0.8276   30.2069 H       2  UNL2        0.0000
     51 H          18.4784    0.1784   31.0314 H       2  UNL2        0.0000
     52 H          20.1466    1.9156   31.5541 H       2  UNL2        0.0000
     53 H          19.5997    4.2810   31.2750 H       2  UNL2        0.0000
     54 C          15.9305    6.6004   32.6437 C.ar    2  UNL2        0.0000
     55 C          15.8467    7.0396   33.9515 C.ar    2  UNL2        0.0000
     56 C          16.9992    7.1636   34.7087 C.ar    2  UNL2        0.0000
     57 C          18.2276    6.8452   34.1520 C.ar    2  UNL2        0.0000
     58 C          18.3118    6.3995   32.8453 C.ar    2  UNL2        0.0000
     59 C          17.1588    6.2753   32.0758 C.ar    2  UNL2        0.0000
     60 H          15.0369    6.5261   32.0374 H       2  UNL2        0.0000
     61 H          14.8869    7.2922   34.3769 H       2  UNL2        0.0000
     62 H          16.9430    7.5081   35.7297 H       2  UNL2        0.0000
     63 H          19.1276    6.9420   34.7406 H       2  UNL2        0.0000
     64 H          19.2820    6.1531   32.4400 H       2  UNL2        0.0000
     65 C          18.7738    3.7622   27.1380 C.ar    2  UNL2        0.0000
     66 C          19.2641    2.4688   27.0679 C.ar    2  UNL2        0.0000
     67 C          18.3983    1.3903   27.0475 C.ar    2  UNL2        0.0000
     68 C          17.0296    1.6043   27.0938 C.ar    2  UNL2        0.0000
     69 C          16.5377    2.8907   27.1797 C.ar    2  UNL2        0.0000
     70 C          17.4046    3.9822   27.2048 C.ar    2  UNL2        0.0000
     71 H          19.4764    4.5830   27.1288 H       2  UNL2        0.0000
     72 H          20.3307    2.3062   27.0224 H       2  UNL2        0.0000
     73 H          18.7889    0.3860   26.9899 H       2  UNL2        0.0000
     74 H          16.3499    0.7661   27.0661 H       2  UNL2        0.0000
     75 H          15.4723    3.0710   27.2334 H       2  UNL2        0.0000
     76 C          14.5658    5.1579   25.4661 C.ar    2  UNL2        0.0000
     77 C          13.9904    5.1072   24.2102 C.ar    2  UNL2        0.0000
     78 C          14.7136    5.5153   23.1014 C.ar    2  UNL2        0.0000
     79 C          16.0147    5.9644   23.2536 C.ar    2  UNL2        0.0000
     80 C          16.5978    6.0123   24.5077 C.ar    2  UNL2        0.0000
     81 C          15.8706    5.6171   25.6247 C.ar    2  UNL2        0.0000
     82 H          14.0048    4.8546   26.3400 H       2  UNL2        0.0000
     83 H          12.9772    4.7519   24.0951 H       2  UNL2        0.0000
     84 H          14.2660    5.4814   22.1199 H       2  UNL2        0.0000
     85 H          16.5824    6.2761   22.3897 H       2  UNL2        0.0000
     86 H          17.6171    6.3540   24.6013 H       2  UNL2        0.0000
     87 C          12.4359    6.5659   29.8216 C.3     1  UNL1        0.0000
     88 H          12.5505    7.1426   28.9039 H       1  UNL1        0.0000
     89 H          12.4806    7.2375   30.6788 H       1  UNL1        0.0000
     90 H          11.4642    6.0643   29.8072 H       1  UNL1        0.0000
     91 C          13.2463    4.6429   31.0234 C.3     1  UNL1        0.0000
     92 H          12.3853    4.0146   30.7778 H       1  UNL1        0.0000
     93 H          13.0244    5.2083   31.9270 H       1  UNL1        0.0000
     94 H          14.1109    4.0058   31.2042 H       1  UNL1        0.0000
@<TRIPOS>BOND
     1    84    78    1
     2    85    79    1
     3    78    79   ar
     4    78    77   ar
     5    79    80   ar
     6    83    77    1
     7    77    76   ar
     8    80    86    1
     9    80    81   ar
    10    40    34    1
    11    39    33    1
    12    34    33   ar
    13    34    35   ar
    14    76    81   ar
    15    76    82    1
    16    81     4    1
    17    33    32   ar
    18    41    35    1
    19    35    36   ar
    20    14    13    1
    21    15    13    1
    22    32    38    1
    23    32    37   ar
    24    73    67    1
    25    72    66    1
    26    67    66   ar
    27    67    68   ar
    28    74    68    1
    29    66    65   ar
    30    68    69   ar
    31    71    65    1
    32    65    70   ar
    33    69    70   ar
    34    69    75    1
    35    13     4    1
    36    13    16    1
    37    70     4    1
    38    20    17    1
    39    36    37   ar
    40    36    42    1
    41    37     2    1
    42    18    17    1
    43    17    16    1
    44    17    19    1
    45     8     7    1
    46    16     7    1
    47    16    10    1
    48     6     1    1
    49     6     5    1
    50    88    87    1
    51     7     2    1
    52     7     9    1
    53    12    10    1
    54     2    26    1
    55    27    21    1
    56    10     3    1
    57    10    11    1
    58    90    87    1
    59    87     5    1
    60    87    89    1
    61    49    43    1
    62     5    91    1
    63    50    44    1
    64    43    44   ar
    65    43    48   ar
    66     3    48    1
    67     3    59    1
    68    21    26   ar
    69    21    22   ar
    70    44    45   ar
    71    26    25   ar
    72    48    47   ar
    73    92    91    1
    74    45    51    1
    75    45    46   ar
    76    91    94    1
    77    91    93    1
    78    47    46   ar
    79    47    53    1
    80    46    52    1
    81    28    22    1
    82    22    23   ar
    83    25    31    1
    84    25    24   ar
    85    60    54    1
    86    59    54   ar
    87    59    58   ar
    88    64    58    1
    89    23    24   ar
    90    23    29    1
    91    24    30    1
    92    54    55   ar
    93    58    57   ar
    94    55    61    1
    95    55    56   ar
    96    57    56   ar
    97    57    63    1
    98    56    62    1
