@<TRIPOS>MOLECULE
CSD_code = NABPAH | q = 0 | S = 0 | Stoichiometry = C8H12CoN3O7 | MND = 6
 31 34 0 0 0
SMALL
GASTEIGER

@<TRIPOS>ATOM
      1 CO          0.3497    2.6711    0.2818 Co.oh   1  UNL1        0.0000
      2 O          -0.9726    3.9639    0.3281 O.3     1  UNL1        0.0000
      3 O          -1.6329    5.8825   -0.5711 O.2     1  UNL1        0.0000
      4 C          -0.8356    4.9868   -0.4282 C.2     1  UNL1        0.0000
      5 C           0.4971    4.9673   -1.2348 C.3     1  UNL1        0.0000
      6 N           0.8576    3.5412   -1.4380 N.4     1  UNL1        0.0000
      7 C           1.5810    5.6795   -0.4362 C.3     1  UNL1        0.0000
      8 C           2.1643    4.8739    0.7536 C.2     1  UNL1        0.0000
      9 O           3.1145    5.3413    1.3442 O.2     1  UNL1        0.0000
     10 O           1.6852    3.7170    1.0336 O.3     1  UNL1        0.0000
     11 O          -0.1655    1.9820    1.9437 O.3     1  UNL1        0.0000
     12 O          -1.0318    0.1875    2.9414 O.2     1  UNL1        0.0000
     13 C          -0.7360    0.8539    1.9778 C.2     1  UNL1        0.0000
     14 C          -1.0121    0.2628    0.5324 C.3     1  UNL1        0.0000
     15 N          -1.0684    1.4067   -0.3821 N.4     1  UNL1        0.0000
     16 C           0.1607   -0.6646    0.2085 C.3     1  UNL1        0.0000
     17 C           1.4959    0.0033    0.3996 C.3     1  UNL1        0.0000
     18 O           2.5430   -0.7611    0.7016 O.3     1  UNL1        0.0000
     19 N           1.6639    1.2504    0.2133 N.3     1  UNL1        0.0000
     20 H           0.3427    5.4789   -2.1930 H       1  UNL1        0.0000
     21 H           1.8566    3.4851   -1.6441 H       1  UNL1        0.0000
     22 H           0.3614    3.1905   -2.2572 H       1  UNL1        0.0000
     23 H           1.1832    6.6124   -0.0329 H       1  UNL1        0.0000
     24 H           2.4310    5.9390   -1.0742 H       1  UNL1        0.0000
     25 H          -1.9438   -0.3154    0.5349 H       1  UNL1        0.0000
     26 H          -1.9225    1.9332   -0.1799 H       1  UNL1        0.0000
     27 H          -1.1295    1.0892   -1.3500 H       1  UNL1        0.0000
     28 H           0.1015   -1.0243   -0.8267 H       1  UNL1        0.0000
     29 H           0.0901   -1.5302    0.8725 H       1  UNL1        0.0000
     30 H           2.3093   -1.6774    0.9034 H       1  UNL1        0.0000
     31 H           2.6125    1.5592    0.4278 H       1  UNL1        0.0000
@<TRIPOS>BOND
     1    22     6    1
     2    20     5    1
     3    21     6    1
     4     6     5    1
     5     6     1    1
     6    27    15    1
     7     5     7    1
     8     5     4    1
     9    24     7    1
    10    28    16    1
    11     3     4    2
    12     7    23    1
    13     7     8    1
    14     4     2    1
    15    15    26    1
    16    15     1    1
    17    15    14    1
    18    16    17    1
    19    16    14    1
    20    16    29    1
    21    19     1    1
    22    19    17    1
    23    19    31    1
    24     1     2    1
    25     1    10    1
    26     1    11    1
    27    17    18    1
    28    14    25    1
    29    14    13    1
    30    18    30    1
    31     8    10    1
    32     8     9    2
    33    11    13    1
    34    13    12    2
