@<TRIPOS>MOLECULE
CSD_code = NUCSEL | q = 0 | S = 0 | Stoichiometry = C19H35ClCoN2P | MND = 4
 59 61 0 0 0
SMALL
GASTEIGER

@<TRIPOS>ATOM
      1 CO         10.8804    3.6485   15.0248 Co.oh   1  UNL1        0.0000
      2 P           8.8975    3.7184   14.1763 P.3     1  UNL1        0.0000
      3 CL         10.3479    2.8029   16.8977 Cl      1  UNL1        0.0000
      4 N          11.4830    4.0957   13.4053 N.pl3   1  UNL1        0.0000
      5 N          12.8576    3.8330   15.5923 N.4     1  UNL1        0.0000
      6 H          12.9473    3.1467   16.3415 H       1  UNL1        0.0000
      7 C           9.2839    4.7628   12.6866 C.3     1  UNL1        0.0000
      8 H           8.6388    4.5887   11.8240 H       1  UNL1        0.0000
      9 H           9.1697    5.8065   12.9942 H       1  UNL1        0.0000
     10 C          10.7246    4.5166   12.3709 C.3     1  UNL1        0.0000
     11 C          11.2534    4.7074   11.1092 C.2     1  UNL1        0.0000
     12 H          10.6128    5.0434   10.3075 H       1  UNL1        0.0000
     13 C          12.6025    4.4677   10.8803 C.2     1  UNL1        0.0000
     14 H          13.0334    4.6135    9.9029 H       1  UNL1        0.0000
     15 C          13.3788    4.0305   11.9467 C.2     1  UNL1        0.0000
     16 H          14.4301    3.8224   11.8171 H       1  UNL1        0.0000
     17 C          12.7922    3.8554   13.1817 C.2     1  UNL1        0.0000
     18 C          13.5297    3.3405   14.3863 C.3     1  UNL1        0.0000
     19 H          13.4630    2.2453   14.3819 H       1  UNL1        0.0000
     20 H          14.5925    3.6073   14.3416 H       1  UNL1        0.0000
     21 C           8.2631    2.1060   13.4226 C.3     1  UNL1        0.0000
     22 C           8.0862    1.0919   14.5548 C.3     1  UNL1        0.0000
     23 H           7.1667    1.2579   15.1069 H       1  UNL1        0.0000
     24 H           8.9196    1.1614   15.2526 H       1  UNL1        0.0000
     25 H           8.0576    0.0804   14.1512 H       1  UNL1        0.0000
     26 C           6.9847    2.2152   12.5979 C.3     1  UNL1        0.0000
     27 H           7.0609    2.9865   11.8337 H       1  UNL1        0.0000
     28 H           6.1253    2.4271   13.2288 H       1  UNL1        0.0000
     29 H           6.7997    1.2656   12.0958 H       1  UNL1        0.0000
     30 C           9.4125    1.6178   12.5351 C.3     1  UNL1        0.0000
     31 H           9.2037    0.6126   12.1705 H       1  UNL1        0.0000
     32 H          10.3363    1.5830   13.1156 H       1  UNL1        0.0000
     33 H           9.5660    2.2646   11.6734 H       1  UNL1        0.0000
     34 C           7.5186    4.6999   15.0102 C.3     1  UNL1        0.0000
     35 C           6.5024    5.3330   14.0612 C.3     1  UNL1        0.0000
     36 H           5.7603    5.8732   14.6489 H       1  UNL1        0.0000
     37 H           5.9803    4.5877   13.4695 H       1  UNL1        0.0000
     38 H           6.9705    6.0447   13.3852 H       1  UNL1        0.0000
     39 C           8.2700    5.7971   15.7712 C.3     1  UNL1        0.0000
     40 H           8.8426    6.4350   15.0981 H       1  UNL1        0.0000
     41 H           8.9557    5.3368   16.4817 H       1  UNL1        0.0000
     42 H           7.5722    6.4257   16.3223 H       1  UNL1        0.0000
     43 C           6.8162    3.8108   16.0341 C.3     1  UNL1        0.0000
     44 H           6.2412    4.4241   16.7272 H       1  UNL1        0.0000
     45 H           7.5554    3.2516   16.6054 H       1  UNL1        0.0000
     46 H           6.1303    3.1169   15.5546 H       1  UNL1        0.0000
     47 C          13.3638    5.1069   16.1424 C.3     1  UNL1        0.0000
     48 C          13.3580    6.1962   15.0706 C.3     1  UNL1        0.0000
     49 H          14.0464    5.9726   14.2593 H       1  UNL1        0.0000
     50 H          13.6518    7.1448   15.5133 H       1  UNL1        0.0000
     51 H          12.3568    6.3043   14.6590 H       1  UNL1        0.0000
     52 C          14.7767    4.9314   16.7151 C.3     1  UNL1        0.0000
     53 H          14.7910    4.1337   17.4558 H       1  UNL1        0.0000
     54 H          15.0941    5.8502   17.2011 H       1  UNL1        0.0000
     55 H          15.5039    4.6984   15.9400 H       1  UNL1        0.0000
     56 C          12.4126    5.5131   17.2683 C.3     1  UNL1        0.0000
     57 H          11.4014    5.6041   16.8723 H       1  UNL1        0.0000
     58 H          12.7108    6.4646   17.7006 H       1  UNL1        0.0000
     59 H          12.3969    4.7600   18.0520 H       1  UNL1        0.0000
@<TRIPOS>BOND
     1    14    13    1
     2    12    11    1
     3    13    11    2
     4    13    15    1
     5    11    10    1
     6    33    30    1
     7    16    15    1
     8     8     7    1
     9    27    26    1
    10    15    17    2
    11    29    26    1
    12    31    30    1
    13    10     7    1
    14    10     4    1
    15    30    32    1
    16    30    21    1
    17    26    28    1
    18    26    21    1
    19     7     9    1
    20     7     2    1
    21    17     4    1
    22    17    18    1
    23    38    35    1
    24     4     1    1
    25    21     2    1
    26    21    22    1
    27    37    35    1
    28    35    36    1
    29    35    34    1
    30    25    22    1
    31     2    34    1
    32     2     1    1
    33    49    48    1
    34    20    18    1
    35    19    18    1
    36    18     5    1
    37    22    23    1
    38    22    24    1
    39    51    48    1
    40    34    39    1
    41    34    43    1
    42     1     5    1
    43     1     3    1
    44    48    50    1
    45    48    47    1
    46    40    39    1
    47    46    43    1
    48     5    47    1
    49     5     6    1
    50    39    42    1
    51    39    41    1
    52    55    52    1
    53    43    45    1
    54    43    44    1
    55    47    52    1
    56    47    56    1
    57    52    54    1
    58    52    53    1
    59    57    56    1
    60    56    58    1
    61    56    59    1
