@<TRIPOS>MOLECULE
CSD_code = NUTHUG | q = 0 | S = 0 | Stoichiometry = C12H13CoN6O6 | MND = 6
 38 41 0 0 0
SMALL
GASTEIGER

@<TRIPOS>ATOM
      1 CO          7.0524    1.8599    1.1308 Co.oh   1  UNL1        0.0000
      2 N           6.5117    3.2058    2.6328 N.pl3   1  UNL1        0.0000
      3 N           7.3216    3.7221    0.1565 N.4     1  UNL1        0.0000
      4 N           7.6367    1.2243   -0.7331 N.pl3   1  UNL1        0.0000
      5 N           8.7723    1.9327    1.7882 N.pl3   1  UNL1        0.0000
      6 N           6.8314    0.3019    1.9427 N.pl3   1  UNL1        0.0000
      7 N           5.3224    1.8036    0.4560 N.pl3   1  UNL1        0.0000
      8 O           8.8781    1.7280    2.9915 O.2     1  UNL1        0.0000
      9 O           9.7194    2.2458    1.0768 O.2     1  UNL1        0.0000
     10 O           7.5656   -0.5796    1.5806 O.2     1  UNL1        0.0000
     11 O           5.9791    0.2447    2.7867 O.2     1  UNL1        0.0000
     12 O           4.8612    0.7038    0.1840 O.2     1  UNL1        0.0000
     13 O           4.7321    2.8558    0.1974 O.2     1  UNL1        0.0000
     14 C           5.8519    2.9381    3.7527 C.3     1  UNL1        0.0000
     15 C           5.5708    3.8978    4.7097 C.2     1  UNL1        0.0000
     16 C           5.9961    5.1972    4.4948 C.2     1  UNL1        0.0000
     17 C           6.6767    5.4794    3.3233 C.2     1  UNL1        0.0000
     18 C           6.9182    4.4615    2.4120 C.2     1  UNL1        0.0000
     19 C           7.6763    4.7347    1.1387 C.3     1  UNL1        0.0000
     20 C           8.2152    3.5788   -0.9833 C.3     1  UNL1        0.0000
     21 C           8.0887    2.1874   -1.5449 C.3     1  UNL1        0.0000
     22 C           8.4561    1.9218   -2.8569 C.2     1  UNL1        0.0000
     23 C           8.3458    0.6335   -3.3486 C.2     1  UNL1        0.0000
     24 C           7.8595   -0.3519   -2.5061 C.2     1  UNL1        0.0000
     25 C           7.5171   -0.0105   -1.2099 C.2     1  UNL1        0.0000
     26 H           5.5385    1.9134    3.8911 H       1  UNL1        0.0000
     27 H           5.0322    3.6233    5.6016 H       1  UNL1        0.0000
     28 H           5.8016    5.9746    5.2177 H       1  UNL1        0.0000
     29 H           7.0244    6.4783    3.1101 H       1  UNL1        0.0000
     30 H           7.4709    5.7559    0.7885 H       1  UNL1        0.0000
     31 H           8.7500    4.6630    1.3523 H       1  UNL1        0.0000
     32 H           9.2482    3.6910   -0.6345 H       1  UNL1        0.0000
     33 H           8.0284    4.3252   -1.7664 H       1  UNL1        0.0000
     34 H           8.8220    2.7240   -3.4786 H       1  UNL1        0.0000
     35 H           8.6264    0.4076   -4.3660 H       1  UNL1        0.0000
     36 H           7.7435   -1.3696   -2.8401 H       1  UNL1        0.0000
     37 H           7.1388   -0.7617   -0.5330 H       1  UNL1        0.0000
     38 H           6.3688    3.9173   -0.1693 H       1  UNL1        0.0000
@<TRIPOS>BOND
     1    35    23    1
     2    34    22    1
     3    23    22    2
     4    23    24    1
     5    22    21    1
     6    36    24    1
     7    24    25    2
     8    33    20    1
     9    21    20    1
    10    21     4    1
    11    25     4    1
    12    25    37    1
    13    20    32    1
    14    20     3    1
    15     4     1    1
    16    38     3    1
    17     3     1    1
    18     3    19    1
    19    12     7    2
    20    13     7    2
    21     7     1    1
    22    30    19    1
    23     9     5    2
    24     1     5    1
    25     1     6    1
    26     1     2    1
    27    19    31    1
    28    19    18    1
    29    10     6    2
    30     5     8    2
    31     6    11    2
    32    18     2    1
    33    18    17    2
    34     2    14    1
    35    29    17    1
    36    17    16    1
    37    14    26    1
    38    14    15    1
    39    16    15    2
    40    16    28    1
    41    15    27    1
