@<TRIPOS>MOLECULE
CSD_code = NUZCOC | q = 0 | S = 0 | Stoichiometry = C30H55CoN4P2 | MND = 5
 92 94 0 0 0
SMALL
GASTEIGER

@<TRIPOS>ATOM
      1 CO          5.4790    2.6966    3.2605 Co.oh   1  UNL1        0.0000
      2 P           3.4323    2.5356    4.0134 P.3     1  UNL1        0.0000
      3 P           7.5947    2.8585    3.8098 P.3     1  UNL1        0.0000
      4 N           3.2755    0.9287    4.4775 N.pl3   1  UNL1        0.0000
      5 N           8.0115    1.3067    4.3071 N.pl3   1  UNL1        0.0000
      6 N           5.1913    5.5339    2.4544 N.3     1  UNL1        0.0000
      7 N           5.4599    2.0663    0.3202 N.3     1  UNL1        0.0000
      8 C           5.6459    1.0260    4.2648 C.ar    1  UNL1        0.0000
      9 C           4.5221    0.3038    4.6758 C.ar    1  UNL1        0.0000
     10 C           4.6363   -0.9426    5.2816 C.ar    1  UNL1        0.0000
     11 C           5.8918   -1.4705    5.5186 C.ar    1  UNL1        0.0000
     12 C           7.0262   -0.7475    5.2014 C.ar    1  UNL1        0.0000
     13 C           6.8971    0.4968    4.5930 C.ar    1  UNL1        0.0000
     14 C           2.8812    3.5804    5.4975 C.3     1  UNL1        0.0000
     15 C           3.6346    3.0195    6.7008 C.3     1  UNL1        0.0000
     16 C           1.3944    3.7170    5.8089 C.3     1  UNL1        0.0000
     17 C           1.9736    2.7292    2.8537 C.3     1  UNL1        0.0000
     18 C           2.0433    1.6564    1.7745 C.3     1  UNL1        0.0000
     19 C           2.0028    4.1177    2.2288 C.3     1  UNL1        0.0000
     20 C           8.3396    3.9200    5.1805 C.3     1  UNL1        0.0000
     21 C           7.5446    3.6279    6.4472 C.3     1  UNL1        0.0000
     22 C           8.2938    5.4091    4.8666 C.3     1  UNL1        0.0000
     23 C           8.8512    3.1629    2.4385 C.3     1  UNL1        0.0000
     24 C           8.9993    1.8960    1.6007 C.3     1  UNL1        0.0000
     25 C           8.3890    4.3064    1.5416 C.3     1  UNL1        0.0000
     26 C           2.0657    0.2775    4.9205 C.3     1  UNL1        0.0000
     27 C           9.3277    0.9079    4.7480 C.3     1  UNL1        0.0000
     28 C           5.3036    4.3940    2.7297 C.3     1  UNL1        0.0000
     29 C           4.9814    6.9213    2.3229 C.3     1  UNL1        0.0000
     30 C           4.0372    7.1653    1.1389 C.3     1  UNL1        0.0000
     31 C           6.3292    7.6053    2.0630 C.3     1  UNL1        0.0000
     32 C           4.3580    7.4493    3.6213 C.3     1  UNL1        0.0000
     33 C           5.4974    1.9830    1.4903 C.3     1  UNL1        0.0000
     34 C           5.3937    2.2859   -1.0709 C.3     1  UNL1        0.0000
     35 C           4.9460    3.7340   -1.3041 C.3     1  UNL1        0.0000
     36 C           4.3812    1.3055   -1.6724 C.3     1  UNL1        0.0000
     37 C           6.7865    2.0504   -1.6655 C.3     1  UNL1        0.0000
     38 H           3.7633   -1.5029    5.5806 H       1  UNL1        0.0000
     39 H           5.9869   -2.4420    5.9832 H       1  UNL1        0.0000
     40 H           7.9968   -1.1572    5.4368 H       1  UNL1        0.0000
     41 H           3.2825    4.5780    5.2741 H       1  UNL1        0.0000
     42 H           4.6582    2.7740    6.4171 H       1  UNL1        0.0000
     43 H           3.6588    3.7357    7.5215 H       1  UNL1        0.0000
     44 H           3.1596    2.1072    7.0569 H       1  UNL1        0.0000
     45 H           0.8519    4.2077    5.0039 H       1  UNL1        0.0000
     46 H           0.9388    2.7486    6.0019 H       1  UNL1        0.0000
     47 H           1.2744    4.3234    6.7075 H       1  UNL1        0.0000
     48 H           1.0419    2.6142    3.4190 H       1  UNL1        0.0000
     49 H           1.9096    0.6637    2.1961 H       1  UNL1        0.0000
     50 H           1.2700    1.8201    1.0234 H       1  UNL1        0.0000
     51 H           3.0183    1.6873    1.2931 H       1  UNL1        0.0000
     52 H           2.0229    4.8896    2.9967 H       1  UNL1        0.0000
     53 H           2.8969    4.2196    1.6175 H       1  UNL1        0.0000
     54 H           1.1261    4.2770    1.5998 H       1  UNL1        0.0000
     55 H           9.3823    3.6091    5.3236 H       1  UNL1        0.0000
     56 H           7.4855    2.5560    6.6330 H       1  UNL1        0.0000
     57 H           7.9994    4.1056    7.3148 H       1  UNL1        0.0000
     58 H           6.5312    4.0091    6.3328 H       1  UNL1        0.0000
     59 H           9.0033    5.6744    4.0860 H       1  UNL1        0.0000
     60 H           7.2902    5.6822    4.5443 H       1  UNL1        0.0000
     61 H           8.5401    5.9887    5.7568 H       1  UNL1        0.0000
     62 H           9.8162    3.4324    2.8888 H       1  UNL1        0.0000
     63 H           9.5490    1.1222    2.1279 H       1  UNL1        0.0000
     64 H           8.0120    1.5062    1.3572 H       1  UNL1        0.0000
     65 H           9.5285    2.1152    0.6731 H       1  UNL1        0.0000
     66 H           8.2325    5.2204    2.1062 H       1  UNL1        0.0000
     67 H           9.1283    4.5028    0.7638 H       1  UNL1        0.0000
     68 H           7.4454    4.0370    1.0722 H       1  UNL1        0.0000
     69 H           1.2042    0.8957    4.6788 H       1  UNL1        0.0000
     70 H           1.9456   -0.6872    4.4166 H       1  UNL1        0.0000
     71 H           2.0711    0.0962    6.0020 H       1  UNL1        0.0000
     72 H          10.0570    1.6585    4.4479 H       1  UNL1        0.0000
     73 H           9.3764    0.7929    5.8375 H       1  UNL1        0.0000
     74 H           9.6109   -0.0459    4.2924 H       1  UNL1        0.0000
     75 H           3.8831    8.2327    1.0022 H       1  UNL1        0.0000
     76 H           4.4625    6.7533    0.2263 H       1  UNL1        0.0000
     77 H           3.0745    6.6921    1.3158 H       1  UNL1        0.0000
     78 H           6.1816    8.6745    1.9321 H       1  UNL1        0.0000
     79 H           7.0052    7.4476    2.9002 H       1  UNL1        0.0000
     80 H           6.7900    7.2024    1.1636 H       1  UNL1        0.0000
     81 H           4.1938    8.5215    3.5478 H       1  UNL1        0.0000
     82 H           3.4045    6.9600    3.8077 H       1  UNL1        0.0000
     83 H           5.0166    7.2515    4.4644 H       1  UNL1        0.0000
     84 H           4.8957    3.9431   -2.3700 H       1  UNL1        0.0000
     85 H           3.9644    3.8997   -0.8649 H       1  UNL1        0.0000
     86 H           5.6500    4.4227   -0.8412 H       1  UNL1        0.0000
     87 H           4.3254    1.4428   -2.7495 H       1  UNL1        0.0000
     88 H           4.6795    0.2806   -1.4634 H       1  UNL1        0.0000
     89 H           3.3941    1.4701   -1.2459 H       1  UNL1        0.0000
     90 H           6.7619    2.2021   -2.7419 H       1  UNL1        0.0000
     91 H           7.5051    2.7402   -1.2288 H       1  UNL1        0.0000
     92 H           7.1165    1.0343   -1.4611 H       1  UNL1        0.0000
@<TRIPOS>BOND
     1    87    36    1
     2    90    37    1
     3    84    35    1
     4    36    88    1
     5    36    89    1
     6    36    34    1
     7    37    92    1
     8    37    91    1
     9    37    34    1
    10    35    34    1
    11    35    85    1
    12    35    86    1
    13    34     7    1
    14    76    30    1
    15     7    33    1
    16    65    24    1
    17    67    25    1
    18    75    30    1
    19    50    18    1
    20    68    25    1
    21    30    77    1
    22    30    29    1
    23    80    31    1
    24    51    18    1
    25    64    24    1
    26    33     1    1
    27    25    66    1
    28    25    23    1
    29    54    19    1
    30    24    63    1
    31    24    23    1
    32    53    19    1
    33    18    49    1
    34    18    17    1
    35    78    31    1
    36    31    29    1
    37    31    79    1
    38    19    17    1
    39    19    52    1
    40    29     6    1
    41    29    32    1
    42    23    62    1
    43    23     3    1
    44     6    28    1
    45    28     1    1
    46    17    48    1
    47    17     2    1
    48     1     3    1
    49     1     2    1
    50     1     8    1
    51    81    32    1
    52    32    82    1
    53    32    83    1
    54     3     5    1
    55     3    20    1
    56     2     4    1
    57     2    14    1
    58    59    22    1
    59     8    13   ar
    60     8     9   ar
    61    74    27    1
    62     5    13    1
    63     5    27    1
    64    70    26    1
    65    72    27    1
    66     4     9    1
    67     4    26    1
    68    60    22    1
    69    13    12   ar
    70     9    10   ar
    71    69    26    1
    72    27    73    1
    73    22    20    1
    74    22    61    1
    75    26    71    1
    76    45    16    1
    77    20    55    1
    78    20    21    1
    79    12    40    1
    80    12    11   ar
    81    41    14    1
    82    10    11   ar
    83    10    38    1
    84    14    16    1
    85    14    15    1
    86    11    39    1
    87    16    46    1
    88    16    47    1
    89    58    21    1
    90    42    15    1
    91    21    56    1
    92    21    57    1
    93    15    44    1
    94    15    43    1
