@<TRIPOS>MOLECULE
CSD_code = ODULII | q = 0 | S = 0 | Stoichiometry = C45H36ClCoP2 | MND = 5
 85 90 0 0 0
SMALL
GASTEIGER

@<TRIPOS>ATOM
      1 CO          3.2538    3.3560    3.5716 Co.oh   1  UNL1        0.0000
      2 P           2.4880    3.6749    5.5231 P.3     1  UNL1        0.0000
      3 P           1.7590    2.1065    2.2643 P.3     2  UNL2        0.0000
      4 CL          4.0704    1.5574    4.4499 Cl      3  UNL3        0.0000
      5 C           2.8285    1.4262    0.9558 C.ar    2  UNL2        0.0000
      6 C           4.0333    5.1738    3.5225 C.3     1  UNL1        0.0000
      7 H           4.9415    5.0658    2.9163 H       1  UNL1        0.0000
      8 C           0.4385    2.9329    1.3178 C.ar    2  UNL2        0.0000
      9 C           0.9261    0.5785    2.8185 C.ar    2  UNL2        0.0000
     10 C           1.1813    5.9807    4.4970 C.ar    1  UNL1        0.0000
     11 C           1.5890    5.8045    3.1656 C.ar    1  UNL1        0.0000
     12 C           2.8183    5.1292    2.7785 C.3     1  UNL1        0.0000
     13 H           2.9323    5.0666    1.6938 H       1  UNL1        0.0000
     14 C           3.3113    6.1918    5.7159 C.ar    1  UNL1        0.0000
     15 C           1.0083    2.6922    5.8847 C.ar    1  UNL1        0.0000
     16 C           1.9966    5.4727    5.6458 C.3     1  UNL1        0.0000
     17 H           1.4488    5.6089    6.5873 H       1  UNL1        0.0000
     18 C           3.4560    3.5613    7.0527 C.ar    1  UNL1        0.0000
     19 C           2.8080    3.5427    8.2838 C.ar    1  UNL1        0.0000
     20 H           1.7269    3.5095    8.3227 H       1  UNL1        0.0000
     21 C           4.1211    1.9273    0.8611 C.ar    2  UNL2        0.0000
     22 H           4.4513    2.6806    1.5790 H       2  UNL2        0.0000
     23 C           4.2712    5.9831    4.7140 C.ar    1  UNL1        0.0000
     24 C           3.6091    6.9989    6.8034 C.ar    1  UNL1        0.0000
     25 H           2.8617    7.1471    7.5707 H       1  UNL1        0.0000
     26 C           4.8431    3.5942    6.9996 C.ar    1  UNL1        0.0000
     27 H           5.3363    3.5918    6.0385 H       1  UNL1        0.0000
     28 C           0.7733    6.3191    2.1516 C.ar    1  UNL1        0.0000
     29 H           1.0715    6.1780    1.1220 H       1  UNL1        0.0000
     30 C          -0.5781    3.5242    2.0654 C.ar    2  UNL2        0.0000
     31 H          -0.5391    3.4597    3.1447 H       2  UNL2        0.0000
     32 C           0.4315    3.0709   -0.0645 C.ar    2  UNL2        0.0000
     33 H           1.2301    2.6477   -0.6574 H       2  UNL2        0.0000
     34 C           1.1912    1.3628    6.2619 C.ar    1  UNL1        0.0000
     35 H           2.1963    0.9824    6.3789 H       1  UNL1        0.0000
     36 C           2.4087    0.4385    0.0694 C.ar    2  UNL2        0.0000
     37 H           1.4075    0.0373    0.1500 H       2  UNL2        0.0000
     38 C          -0.2797    3.1861    5.7048 C.ar    1  UNL1        0.0000
     39 H          -0.4284    4.2146    5.4086 H       1  UNL1        0.0000
     40 C           3.5488    3.5567    9.4508 C.ar    1  UNL1        0.0000
     41 H           3.0461    3.5386   10.4072 H       1  UNL1        0.0000
     42 C          -1.1838    1.0411    6.2936 C.ar    1  UNL1        0.0000
     43 H          -2.0378    0.3989    6.4501 H       1  UNL1        0.0000
     44 C           0.0100    6.6790    4.7660 C.ar    1  UNL1        0.0000
     45 H          -0.2930    6.8235    5.7951 H       1  UNL1        0.0000
     46 C          -0.4532    0.4331    2.9069 C.ar    2  UNL2        0.0000
     47 H          -1.1090    1.2321    2.5942 H       2  UNL2        0.0000
     48 C           1.7483   -0.4728    3.2213 C.ar    2  UNL2        0.0000
     49 H           2.8213   -0.3606    3.1681 H       2  UNL2        0.0000
     50 C          -1.6151    4.1885    1.4401 C.ar    2  UNL2        0.0000
     51 H          -2.4049    4.6310    2.0295 H       2  UNL2        0.0000
     52 C           5.8113    7.3820    5.9568 C.ar    1  UNL1        0.0000
     53 H           6.7877    7.8340    6.0509 H       1  UNL1        0.0000
     54 C           3.2747   -0.0257   -0.9031 C.ar    2  UNL2        0.0000
     55 H           2.9486   -0.7915   -1.5921 H       2  UNL2        0.0000
     56 C           5.5240    6.5856    4.8684 C.ar    1  UNL1        0.0000
     57 H           6.2812    6.4224    4.1140 H       1  UNL1        0.0000
     58 C          -1.3702    2.3595    5.9138 C.ar    1  UNL1        0.0000
     59 H          -2.3696    2.7471    5.7758 H       1  UNL1        0.0000
     60 C           4.9875    1.4607   -0.1102 C.ar    2  UNL2        0.0000
     61 H           5.9932    1.8497   -0.1753 H       2  UNL2        0.0000
     62 C          -0.3877    7.0062    2.4327 C.ar    1  UNL1        0.0000
     63 H          -0.9906    7.3984    1.6270 H       1  UNL1        0.0000
     64 C          -0.7745    7.1918    3.7498 C.ar    1  UNL1        0.0000
     65 H          -1.6805    7.7304    3.9849 H       1  UNL1        0.0000
     66 C           0.0984    0.5447    6.4697 C.ar    1  UNL1        0.0000
     67 H           0.2445   -0.4847    6.7607 H       1  UNL1        0.0000
     68 C          -0.6000    3.7523   -0.6872 C.ar    2  UNL2        0.0000
     69 H          -0.6005    3.8536   -1.7632 H       2  UNL2        0.0000
     70 C           4.8481    7.5986    6.9288 C.ar    1  UNL1        0.0000
     71 H           5.0657    8.2183    7.7856 H       1  UNL1        0.0000
     72 C           4.9329    3.5960    9.3950 C.ar    1  UNL1        0.0000
     73 H           5.5075    3.6097   10.3097 H       1  UNL1        0.0000
     74 C          -1.6293    4.3006    0.0593 C.ar    2  UNL2        0.0000
     75 H          -2.4352    4.8242   -0.4339 H       2  UNL2        0.0000
     76 C           4.5606    0.4852   -0.9957 C.ar    2  UNL2        0.0000
     77 H           5.2330    0.1158   -1.7561 H       2  UNL2        0.0000
     78 C          -0.9982   -0.7461    3.3831 C.ar    2  UNL2        0.0000
     79 H          -2.0723   -0.8515    3.4396 H       2  UNL2        0.0000
     80 C           5.5787    3.6120    8.1701 C.ar    1  UNL1        0.0000
     81 H           6.6575    3.6378    8.1278 H       1  UNL1        0.0000
     82 C          -0.1775   -1.7861    3.7833 C.ar    2  UNL2        0.0000
     83 H          -0.6086   -2.7039    4.1565 H       2  UNL2        0.0000
     84 C           1.1983   -1.6454    3.7006 C.ar    2  UNL2        0.0000
     85 H           1.8458   -2.4524    4.0109 H       2  UNL2        0.0000
@<TRIPOS>BOND
     1    69    68    1
     2    77    76    1
     3    55    54    1
     4    76    54   ar
     5    76    60   ar
     6    54    36   ar
     7    68    32   ar
     8    68    74   ar
     9    33    32    1
    10    75    74    1
    11    61    60    1
    12    60    21   ar
    13    32     8   ar
    14    74    50   ar
    15    36    37    1
    16    36     5   ar
    17    21     5   ar
    18    21    22    1
    19     5     3    1
    20    29    28    1
    21     8    30   ar
    22     8     3    1
    23    50    51    1
    24    50    30   ar
    25    63    62    1
    26    13    12    1
    27    30    31    1
    28    28    62   ar
    29    28    11   ar
    30     3     9    1
    31    62    64   ar
    32    47    46    1
    33    12    11    1
    34    12     6    1
    35     9    46   ar
    36     9    48   ar
    37    46    78   ar
    38     7     6    1
    39    11    10   ar
    40    49    48    1
    41    48    84   ar
    42    78    79    1
    43    78    82   ar
    44     6     1    1
    45     6    23    1
    46    84    82   ar
    47    84    85    1
    48    64    65    1
    49    64    44   ar
    50    82    83    1
    51    57    56    1
    52    10    44   ar
    53    10    16    1
    54    23    56   ar
    55    23    14   ar
    56    44    45    1
    57    56    52   ar
    58    39    38    1
    59     2    16    1
    60     2    15    1
    61     2    18    1
    62    16    14    1
    63    16    17    1
    64    38    15   ar
    65    38    58   ar
    66    14    24   ar
    67    59    58    1
    68    15    34   ar
    69    58    42   ar
    70    52    53    1
    71    52    70   ar
    72    27    26    1
    73    34    35    1
    74    34    66   ar
    75    42    43    1
    76    42    66   ar
    77    66    67    1
    78    24    70   ar
    79    24    25    1
    80    70    71    1
    81    26    18   ar
    82    26    80   ar
    83    18    19   ar
    84    81    80    1
    85    80    72   ar
    86    19    20    1
    87    19    40   ar
    88    72    40   ar
    89    72    73    1
    90    40    41    1
