@<TRIPOS>MOLECULE
CSD_code = OJEZIM | q = 0 | S = 0 | Stoichiometry = C17H23CoN6O8 | MND = 6
 55 59 0 0 0
SMALL
GASTEIGER

@<TRIPOS>ATOM
      1 CO          4.9365    2.4147   15.8511 Co.oh   1  UNL1        0.0000
      2 O           3.1440   -0.3924   18.1056 O.2     1  UNL1        0.0000
      3 O           6.9223    1.3042   12.3766 O.3     1  UNL1        0.0000
      4 O           2.5141    1.6064   15.0115 O.2     1  UNL1        0.0000
      5 O           3.0163    3.6347   14.4947 O.2     1  UNL1        0.0000
      6 O           5.5257    4.8303   15.6519 O.2     1  UNL1        0.0000
      7 O           4.2012    4.4005   17.3032 O.2     1  UNL1        0.0000
      8 O           7.5069    2.9955   16.2445 O.2     1  UNL1        0.0000
      9 O           6.8668    1.1861   17.2158 O.2     1  UNL1        0.0000
     10 N           4.0355    1.5315   17.4124 N.pl3   1  UNL1        0.0000
     11 N           5.0203    0.5213   15.2507 N.pl3   1  UNL1        0.0000
     12 N           5.8703    2.5140   13.9301 N.3     1  UNL1        0.0000
     13 N           6.6402    2.2022   16.5669 N.pl3   1  UNL1        0.0000
     14 N           4.8784    4.1009   16.3508 N.pl3   1  UNL1        0.0000
     15 N           3.2672    2.5722   15.0364 N.pl3   1  UNL1        0.0000
     16 C           3.3849    1.8916   18.6604 C.3     1  UNL1        0.0000
     17 H           2.6809    2.7047   18.4605 H       1  UNL1        0.0000
     18 C           2.6593    0.5802   19.0406 C.3     1  UNL1        0.0000
     19 H           2.8932    0.2319   20.0468 H       1  UNL1        0.0000
     20 H           1.5745    0.6501   18.9230 H       1  UNL1        0.0000
     21 C           3.8672    0.2694   17.2162 C.2     1  UNL1        0.0000
     22 C           4.4377   -0.3723   16.0394 C.2     1  UNL1        0.0000
     23 C           4.4162   -1.7220   15.6993 C.2     1  UNL1        0.0000
     24 H           3.9376   -2.4388   16.3463 H       1  UNL1        0.0000
     25 C           5.0271   -2.1015   14.5125 C.2     1  UNL1        0.0000
     26 H           5.0321   -3.1405   14.2199 H       1  UNL1        0.0000
     27 C           5.6310   -1.1534   13.6930 C.2     1  UNL1        0.0000
     28 H           6.1076   -1.4248   12.7651 H       1  UNL1        0.0000
     29 C           5.5980    0.1715   14.1080 C.2     1  UNL1        0.0000
     30 C           6.1370    1.3567   13.4450 C.3     1  UNL1        0.0000
     31 C           7.3334    2.6556   12.1165 C.3     1  UNL1        0.0000
     32 H           7.1233    2.8795   11.0705 H       1  UNL1        0.0000
     33 H           8.4099    2.7205   12.2934 H       1  UNL1        0.0000
     34 C           6.5133    3.5172   13.1085 C.3     1  UNL1        0.0000
     35 H           7.1530    4.1195   13.7602 H       1  UNL1        0.0000
     36 C           4.3963    2.3998   19.7098 C.3     1  UNL1        0.0000
     37 H           4.9237    3.2354   19.2425 H       1  UNL1        0.0000
     38 C           5.4232    1.3445   20.1094 C.3     1  UNL1        0.0000
     39 H           6.1508    1.7890   20.7836 H       1  UNL1        0.0000
     40 H           5.9576    0.9728   19.2385 H       1  UNL1        0.0000
     41 H           4.9630    0.5040   20.6247 H       1  UNL1        0.0000
     42 C           3.6451    2.9343   20.9263 C.3     1  UNL1        0.0000
     43 H           4.3514    3.3382   21.6464 H       1  UNL1        0.0000
     44 H           3.0724    2.1485   21.4147 H       1  UNL1        0.0000
     45 H           2.9645    3.7291   20.6330 H       1  UNL1        0.0000
     46 C           5.4741    4.4558   12.4637 C.3     1  UNL1        0.0000
     47 H           4.8825    4.8613   13.2881 H       1  UNL1        0.0000
     48 C           4.5258    3.7235   11.5184 C.3     1  UNL1        0.0000
     49 H           4.0347    2.8979   12.0279 H       1  UNL1        0.0000
     50 H           5.0394    3.3388   10.6390 H       1  UNL1        0.0000
     51 H           3.7535    4.4099   11.1830 H       1  UNL1        0.0000
     52 C           6.1843    5.6066   11.7591 C.3     1  UNL1        0.0000
     53 H           5.4510    6.2956   11.3492 H       1  UNL1        0.0000
     54 H           6.8087    5.2470   10.9431 H       1  UNL1        0.0000
     55 H           6.8103    6.1506   12.4610 H       1  UNL1        0.0000
@<TRIPOS>BOND
     1    50    48    1
     2    54    52    1
     3    32    31    1
     4    51    48    1
     5    53    52    1
     6    48    49    1
     7    48    46    1
     8    52    55    1
     9    52    46    1
    10    31    33    1
    11    31     3    1
    12    31    34    1
    13     3    30    1
    14    46    34    1
    15    46    47    1
    16    28    27    1
    17    34    35    1
    18    34    12    1
    19    30    12    1
    20    30    29    1
    21    27    29    2
    22    27    25    1
    23    12     1    1
    24    29    11    1
    25    26    25    1
    26     5    15    2
    27    25    23    2
    28     4    15    2
    29    15     1    1
    30    11     1    1
    31    11    22    1
    32     6    14    2
    33    23    22    1
    34    23    24    1
    35     1    14    1
    36     1    13    1
    37     1    10    1
    38    22    21    2
    39     8    13    2
    40    14     7    2
    41    13     9    2
    42    21    10    1
    43    21     2    1
    44    10    16    1
    45     2    18    1
    46    17    16    1
    47    16    18    1
    48    16    36    1
    49    20    18    1
    50    18    19    1
    51    40    38    1
    52    37    36    1
    53    36    38    1
    54    36    42    1
    55    38    41    1
    56    38    39    1
    57    45    42    1
    58    42    44    1
    59    42    43    1
