@<TRIPOS>MOLECULE
CSD_code = OLAXUU | q = 0 | S = 0 | Stoichiometry = C34H60BCoNP3 | MND = 4
 100 103 0 0 0
SMALL
GASTEIGER

@<TRIPOS>ATOM
      1 CO          8.5167    4.5290    4.2129 Co.oh   1  UNL1        0.0000
      2 P           9.8934    5.5286    5.7210 P.3     1  UNL1        0.0000
      3 P           7.4480    6.4665    3.6811 P.3     1  UNL1        0.0000
      4 P          10.0947    4.7963    2.6278 P.3     1  UNL1        0.0000
      5 N           7.3430    3.3893    4.3871 N.pl3   1  UNL1        0.0000
      6 B          10.2844    7.5385    3.6355 B       1  UNL1        0.0000
      7 C          10.9759    8.9928    3.4145 C.ar    1  UNL1        0.0000
      8 C          10.8574    9.9792    4.3957 C.ar    1  UNL1        0.0000
      9 H          10.3116    9.7593    5.3047 H       1  UNL1        0.0000
     10 C          11.4092   11.2387    4.2548 C.ar    1  UNL1        0.0000
     11 H          11.2936   11.9720    5.0425 H       1  UNL1        0.0000
     12 C          12.1094   11.5644    3.1062 C.ar    1  UNL1        0.0000
     13 H          12.5455   12.5469    2.9889 H       1  UNL1        0.0000
     14 C          12.2387   10.6141    2.1103 C.ar    1  UNL1        0.0000
     15 H          12.7789   10.8537    1.2035 H       1  UNL1        0.0000
     16 C          11.6788    9.3576    2.2680 C.ar    1  UNL1        0.0000
     17 H          11.7972    8.6455    1.4633 H       1  UNL1        0.0000
     18 C          10.8842    6.8940    5.0411 C.3     1  UNL1        0.0000
     19 H          10.9782    7.6595    5.8141 H       1  UNL1        0.0000
     20 H          11.8898    6.5062    4.8525 H       1  UNL1        0.0000
     21 C           8.6552    7.8365    3.7619 C.3     1  UNL1        0.0000
     22 H           8.3584    8.5484    2.9860 H       1  UNL1        0.0000
     23 H           8.4922    8.3329    4.7204 H       1  UNL1        0.0000
     24 C          10.6164    6.5217    2.3758 C.3     1  UNL1        0.0000
     25 H          11.6900    6.5073    2.1691 H       1  UNL1        0.0000
     26 H          10.1065    6.8803    1.4774 H       1  UNL1        0.0000
     27 C          10.4250    3.2685    7.3098 C.3     1  UNL1        0.0000
     28 H          11.1121    2.4412    7.4849 H       1  UNL1        0.0000
     29 H           9.5849    2.9011    6.7180 H       1  UNL1        0.0000
     30 H          10.0500    3.5986    8.2756 H       1  UNL1        0.0000
     31 C          11.1342    4.4053    6.5791 C.3     1  UNL1        0.0000
     32 H          11.6669    3.9644    5.7298 H       1  UNL1        0.0000
     33 C          12.1861    5.0740    7.4598 C.3     1  UNL1        0.0000
     34 H          11.7905    5.3327    8.4366 H       1  UNL1        0.0000
     35 H          12.5795    5.9750    6.9950 H       1  UNL1        0.0000
     36 H          13.0164    4.3843    7.6132 H       1  UNL1        0.0000
     37 C           7.7877    5.4419    7.5989 C.3     1  UNL1        0.0000
     38 H           8.1812    4.7438    8.3332 H       1  UNL1        0.0000
     39 H           7.3543    4.8668    6.7796 H       1  UNL1        0.0000
     40 H           7.0001    6.0217    8.0806 H       1  UNL1        0.0000
     41 C           8.8838    6.3621    7.0684 C.3     1  UNL1        0.0000
     42 H           8.4062    7.1708    6.4998 H       1  UNL1        0.0000
     43 C           9.6468    7.0008    8.2243 C.3     1  UNL1        0.0000
     44 H           8.9955    7.7086    8.7375 H       1  UNL1        0.0000
     45 H          10.5262    7.5419    7.8840 H       1  UNL1        0.0000
     46 H           9.9541    6.2534    8.9511 H       1  UNL1        0.0000
     47 C           4.7514    6.1997    4.4891 C.3     1  UNL1        0.0000
     48 H           4.0541    6.2908    5.3214 H       1  UNL1        0.0000
     49 H           4.9938    5.1479    4.3630 H       1  UNL1        0.0000
     50 H           4.2452    6.5521    3.5942 H       1  UNL1        0.0000
     51 C           6.0102    7.0159    4.7692 C.3     1  UNL1        0.0000
     52 H           6.3595    6.7414    5.7708 H       1  UNL1        0.0000
     53 C           5.6877    8.5088    4.7909 C.3     1  UNL1        0.0000
     54 H           5.2186    8.8338    3.8682 H       1  UNL1        0.0000
     55 H           6.5732    9.1163    4.9570 H       1  UNL1        0.0000
     56 H           4.9903    8.7052    5.6053 H       1  UNL1        0.0000
     57 C           6.1074    5.3212    1.4692 C.3     1  UNL1        0.0000
     58 H           5.0828    5.3324    1.8303 H       1  UNL1        0.0000
     59 H           6.5939    4.4339    1.8686 H       1  UNL1        0.0000
     60 H           6.0788    5.2496    0.3819 H       1  UNL1        0.0000
     61 C           6.8615    6.5748    1.9024 C.3     1  UNL1        0.0000
     62 H           7.8207    6.6106    1.3685 H       1  UNL1        0.0000
     63 C           6.0833    7.8279    1.5143 C.3     1  UNL1        0.0000
     64 H           6.0238    7.8873    0.4274 H       1  UNL1        0.0000
     65 H           6.5693    8.7329    1.8706 H       1  UNL1        0.0000
     66 H           5.0667    7.7968    1.8970 H       1  UNL1        0.0000
     67 C           9.1809    2.7324    0.9435 C.3     1  UNL1        0.0000
     68 H           8.5281    2.4876    0.1061 H       1  UNL1        0.0000
     69 H           8.6690    2.4751    1.8718 H       1  UNL1        0.0000
     70 H          10.0744    2.1183    0.8585 H       1  UNL1        0.0000
     71 C           9.5293    4.2176    0.9295 C.3     1  UNL1        0.0000
     72 H           8.5920    4.7719    0.8129 H       1  UNL1        0.0000
     73 C          10.4104    4.5752   -0.2653 C.3     1  UNL1        0.0000
     74 H          11.2467    3.8917   -0.3707 H       1  UNL1        0.0000
     75 H          10.7992    5.5876   -0.1877 H       1  UNL1        0.0000
     76 H           9.8175    4.5128   -1.1779 H       1  UNL1        0.0000
     77 C          11.3925    2.4945    3.5633 C.3     1  UNL1        0.0000
     78 H          11.1980    1.7892    2.7594 H       1  UNL1        0.0000
     79 H          10.5110    2.5169    4.2092 H       1  UNL1        0.0000
     80 H          12.2387    2.1178    4.1377 H       1  UNL1        0.0000
     81 C          11.6885    3.8872    3.0079 C.3     1  UNL1        0.0000
     82 H          12.1056    4.5091    3.8114 H       1  UNL1        0.0000
     83 C          12.7371    3.8179    1.9035 C.3     1  UNL1        0.0000
     84 H          13.6975    3.5348    2.3349 H       1  UNL1        0.0000
     85 H          12.8624    4.7775    1.4076 H       1  UNL1        0.0000
     86 H          12.4774    3.0677    1.1613 H       1  UNL1        0.0000
     87 C           6.1101    2.8880    4.3874 C.ar    1  UNL1        0.0000
     88 C           5.3092    2.8978    5.5520 C.ar    1  UNL1        0.0000
     89 H           5.6941    3.3760    6.4408 H       1  UNL1        0.0000
     90 C           4.0685    2.3059    5.5627 C.ar    1  UNL1        0.0000
     91 H           3.4787    2.3322    6.4689 H       1  UNL1        0.0000
     92 C           3.5550    1.6755    4.4328 C.ar    1  UNL1        0.0000
     93 C           4.3428    1.6440    3.2854 C.ar    1  UNL1        0.0000
     94 H           3.9690    1.1485    2.3997 H       1  UNL1        0.0000
     95 C           5.5870    2.2274    3.2533 C.ar    1  UNL1        0.0000
     96 H           6.1900    2.1775    2.3583 H       1  UNL1        0.0000
     97 C           2.2098    1.0182    4.4613 C.3     1  UNL1        0.0000
     98 H           2.3089   -0.0269    4.7593 H       1  UNL1        0.0000
     99 H           1.7450    1.0429    3.4778 H       1  UNL1        0.0000
    100 H           1.5527    1.5095    5.1758 H       1  UNL1        0.0000
@<TRIPOS>BOND
     1    76    73    1
     2    74    73    1
     3    73    75    1
     4    73    71    1
     5    68    67    1
     6    60    57    1
     7    64    63    1
     8    72    71    1
     9    70    67    1
    10    71    67    1
    11    71     4    1
    12    67    69    1
    13    86    83    1
    14    15    14    1
    15    62    61    1
    16    85    83    1
    17    17    16    1
    18    57    58    1
    19    57    59    1
    20    57    61    1
    21    26    24    1
    22    63    65    1
    23    63    66    1
    24    63    61    1
    25    61     3    1
    26    83    84    1
    27    83    81    1
    28    14    16   ar
    29    14    12   ar
    30    25    24    1
    31    16     7   ar
    32    96    95    1
    33    24     4    1
    34    24     6    1
    35    94    93    1
    36     4    81    1
    37     4     1    1
    38    78    77    1
    39    22    21    1
    40    13    12    1
    41    81    77    1
    42    81    82    1
    43    12    10   ar
    44    95    93   ar
    45    95    87   ar
    46    93    92   ar
    47     7     6    1
    48     7     8   ar
    49    99    97    1
    50    77    80    1
    51    77    79    1
    52    50    47    1
    53     6    21    1
    54     6    18    1
    55     3    21    1
    56     3     1    1
    57     3    51    1
    58    21    23    1
    59    54    53    1
    60     1     5    1
    61     1     2    1
    62    10     8   ar
    63    10    11    1
    64    49    47    1
    65     5    87    1
    66    87    88   ar
    67     8     9    1
    68    92    97    1
    69    92    90   ar
    70    97    98    1
    71    97   100    1
    72    47    51    1
    73    47    48    1
    74    51    53    1
    75    51    52    1
    76    53    55    1
    77    53    56    1
    78    20    18    1
    79    18     2    1
    80    18    19    1
    81    88    90   ar
    82    88    89    1
    83    90    91    1
    84     2    31    1
    85     2    41    1
    86    32    31    1
    87    42    41    1
    88    31    27    1
    89    31    33    1
    90    29    27    1
    91    39    37    1
    92    35    33    1
    93    41    37    1
    94    41    43    1
    95    27    28    1
    96    27    30    1
    97    33    36    1
    98    33    34    1
    99    37    40    1
   100    37    38    1
   101    45    43    1
   102    43    44    1
   103    43    46    1
