@<TRIPOS>MOLECULE
CSD_code = OLOJUW | q = -1 | S = 0 | Stoichiometry = C42H50CoN2O4(1-) | MND = 6
 99 106 0 0 0
SMALL
GASTEIGER

@<TRIPOS>ATOM
      1 CO         -3.7040    1.9917   12.4166 Co.oh   1  UNL1        0.0000
      2 O          -2.8621    0.9570   13.7163 O.3     1  UNL1        0.0000
      3 O          -4.5316    3.0817   11.1326 O.3     1  UNL1        0.0000
      4 C          -1.8785   -2.2735   12.3431 C.ar    1  UNL1        0.0000
      5 H          -1.9986   -2.8169   11.4177 H       1  UNL1        0.0000
      6 O          -2.0208    2.4859   11.7922 O.3     1  UNL1        0.0000
      7 N          -3.8007    3.3555   13.6863 N.pl3   1  UNL1        0.0000
      8 N          -3.6942    0.6471   11.1230 N.pl3   1  UNL1        0.0000
      9 C          -4.7370    2.4283   10.0386 C.ar    1  UNL1        0.0000
     10 C          -4.3098    1.0729    9.9562 C.ar    1  UNL1        0.0000
     11 C          -5.3637    3.0005    8.9157 C.ar    1  UNL1        0.0000
     12 H          -5.6877    4.0291    8.9757 H       1  UNL1        0.0000
     13 C          -5.5613    2.2552    7.7759 C.ar    1  UNL1        0.0000
     14 H          -6.0488    2.7046    6.9200 H       1  UNL1        0.0000
     15 C          -4.5230    0.3409    8.7918 C.ar    1  UNL1        0.0000
     16 H          -4.2125   -0.6924    8.7213 H       1  UNL1        0.0000
     17 C          -5.1460    0.9292    7.7081 C.ar    1  UNL1        0.0000
     18 H          -5.3127    0.3560    6.8065 H       1  UNL1        0.0000
     19 C          -2.4631   -0.9964   12.4103 C.ar    1  UNL1        0.0000
     20 C          -1.6173   -0.7801   14.6945 C.ar    1  UNL1        0.0000
     21 C          -2.3480   -0.2124   13.5979 C.ar    1  UNL1        0.0000
     22 C          -1.1794   -2.8096   13.3930 C.ar    1  UNL1        0.0000
     23 C          -1.0687   -2.0302   14.5579 C.ar    1  UNL1        0.0000
     24 H          -0.5158   -2.4470   15.3838 H       1  UNL1        0.0000
     25 C          -3.1462   -0.5207   11.2581 C.3     1  UNL1        0.0000
     26 H          -3.1797   -1.2175   10.4196 H       1  UNL1        0.0000
     27 C          -0.5177   -4.1801   13.3567 C.3     1  UNL1        0.0000
     28 C          -1.4577    0.0365   15.9720 C.3     1  UNL1        0.0000
     29 C          -1.1022   -5.0594   14.4714 C.3     1  UNL1        0.0000
     30 H          -0.6496   -6.0504   14.4523 H       1  UNL1        0.0000
     31 H          -2.1766   -5.1652   14.3368 H       1  UNL1        0.0000
     32 H          -0.9255   -4.6224   15.4502 H       1  UNL1        0.0000
     33 C          -2.8441    0.3647   16.5437 C.3     1  UNL1        0.0000
     34 H          -2.7484    0.9689   17.4450 H       1  UNL1        0.0000
     35 H          -3.3744   -0.5532   16.7935 H       1  UNL1        0.0000
     36 H          -3.4308    0.9160   15.8163 H       1  UNL1        0.0000
     37 C           0.9948   -4.0169   13.5656 C.3     1  UNL1        0.0000
     38 H           1.2116   -3.5656   14.5298 H       1  UNL1        0.0000
     39 H           1.4091   -3.3750   12.7911 H       1  UNL1        0.0000
     40 H           1.4932   -4.9847   13.5203 H       1  UNL1        0.0000
     41 C          -0.7356   -4.9012   12.0234 C.3     1  UNL1        0.0000
     42 H          -0.2475   -5.8751   12.0484 H       1  UNL1        0.0000
     43 H          -0.3107   -4.3306   11.2011 H       1  UNL1        0.0000
     44 H          -1.7952   -5.0578   11.8360 H       1  UNL1        0.0000
     45 C          -0.6667   -0.7001   17.0609 C.3     1  UNL1        0.0000
     46 H           0.3469   -0.9213   16.7323 H       1  UNL1        0.0000
     47 H          -1.1604   -1.6261   17.3495 H       1  UNL1        0.0000
     48 H          -0.6012   -0.0659   17.9440 H       1  UNL1        0.0000
     49 O          -5.3892    1.4389   13.0295 O.3     1  UNL1        0.0000
     50 C          -7.0782    2.0617   14.5703 C.ar    1  UNL1        0.0000
     51 H          -7.6987    1.2339   14.2600 H       1  UNL1        0.0000
     52 C          -6.6946    4.0092   15.9328 C.ar    1  UNL1        0.0000
     53 H          -7.0402    4.6948   16.6944 H       1  UNL1        0.0000
     54 C          -5.8264    2.2314   13.9497 C.ar    1  UNL1        0.0000
     55 C          -5.0100    3.3220   14.3632 C.ar    1  UNL1        0.0000
     56 C          -7.4963    2.9414   15.5425 C.ar    1  UNL1        0.0000
     57 H          -8.4639    2.8040   16.0082 H       1  UNL1        0.0000
     58 C          -5.4576    4.1984   15.3473 C.ar    1  UNL1        0.0000
     59 H          -4.8516    5.0375   15.6603 H       1  UNL1        0.0000
     60 C           0.6017    5.3233   13.2731 C.ar    1  UNL1        0.0000
     61 C          -1.5805    4.2573   13.3247 C.ar    1  UNL1        0.0000
     62 C           0.1000    3.4960   11.7195 C.ar    1  UNL1        0.0000
     63 C           0.5252    2.5523   10.6002 C.3     1  UNL1        0.0000
     64 C          -0.6601    5.2101   13.7962 C.ar    1  UNL1        0.0000
     65 H          -0.9897    5.8504   14.6008 H       1  UNL1        0.0000
     66 C           0.9481    4.4452   12.2312 C.ar    1  UNL1        0.0000
     67 H           1.9411    4.5289   11.8206 H       1  UNL1        0.0000
     68 C          -2.8552    4.2028   13.9514 C.3     1  UNL1        0.0000
     69 H          -3.0167    4.9424   14.7368 H       1  UNL1        0.0000
     70 C           1.9555    2.8100   10.1086 C.3     1  UNL1        0.0000
     71 H           2.6809    2.6597   10.9058 H       1  UNL1        0.0000
     72 H           2.0614    3.8182    9.7125 H       1  UNL1        0.0000
     73 H           2.1884    2.1091    9.3081 H       1  UNL1        0.0000
     74 C           0.4589    1.1077   11.1155 C.3     1  UNL1        0.0000
     75 H           0.7449    0.4105   10.3290 H       1  UNL1        0.0000
     76 H          -0.5481    0.8695   11.4408 H       1  UNL1        0.0000
     77 H           1.1333    0.9764   11.9604 H       1  UNL1        0.0000
     78 C           1.6340    6.3284   13.7646 C.3     1  UNL1        0.0000
     79 C          -0.4182    2.7245    9.4015 C.3     1  UNL1        0.0000
     80 H          -0.1389    2.0428    8.5991 H       1  UNL1        0.0000
     81 H          -0.3665    3.7454    9.0260 H       1  UNL1        0.0000
     82 H          -1.4418    2.5155    9.6947 H       1  UNL1        0.0000
     83 C           2.0462    7.2462   12.6049 C.3     1  UNL1        0.0000
     84 H           2.4852    6.6771   11.7903 H       1  UNL1        0.0000
     85 H           2.7765    7.9815   12.9413 H       1  UNL1        0.0000
     86 H           1.1754    7.7722   12.2194 H       1  UNL1        0.0000
     87 C           1.1014    7.2098   14.8980 C.3     1  UNL1        0.0000
     88 H           0.2362    7.7813   14.5704 H       1  UNL1        0.0000
     89 H           1.8734    7.9120   15.2113 H       1  UNL1        0.0000
     90 H           0.8226    6.6066   15.7586 H       1  UNL1        0.0000
     91 C          -1.2215    3.3714   12.2642 C.ar    1  UNL1        0.0000
     92 C           2.8638    5.5737   14.2899 C.3     1  UNL1        0.0000
     93 H           2.5721    4.9045   15.0965 H       1  UNL1        0.0000
     94 H           3.6082    6.2734   14.6690 H       1  UNL1        0.0000
     95 H           3.3231    4.9778   13.5062 H       1  UNL1        0.0000
     96 C          -0.7064    1.3341   15.6427 C.3     1  UNL1        0.0000
     97 H           0.2791    1.1079   15.2383 H       1  UNL1        0.0000
     98 H          -0.5850    1.9408   16.5392 H       1  UNL1        0.0000
     99 H          -1.2550    1.9103   14.9055 H       1  UNL1        0.0000
@<TRIPOS>BOND
     1    18    17    1
     2    14    13    1
     3    17    13   ar
     4    17    15   ar
     5    13    11   ar
     6    80    79    1
     7    16    15    1
     8    15    10   ar
     9    11    12    1
    10    11     9   ar
    11    81    79    1
    12    73    70    1
    13    79    82    1
    14    79    63    1
    15    72    70    1
    16    10     9   ar
    17    10     8    1
    18     9     3    1
    19    70    63    1
    20    70    71    1
    21    75    74    1
    22    26    25    1
    23    63    74    1
    24    63    62    1
    25    74    76    1
    26    74    77    1
    27     8    25    1
    28     8     1    1
    29     3     1    1
    30    43    41    1
    31    25    19    1
    32     5     4    1
    33    62    66   ar
    34    62    91   ar
    35    84    83    1
    36     6    91    1
    37     6     1    1
    38    67    66    1
    39    44    41    1
    40    41    42    1
    41    41    27    1
    42    86    83    1
    43    66    60   ar
    44    91    61   ar
    45     4    19   ar
    46     4    22   ar
    47    19    21   ar
    48     1    49    1
    49     1     7    1
    50     1     2    1
    51    83    85    1
    52    83    78    1
    53    39    37    1
    54    49    54    1
    55    60    78    1
    56    60    64   ar
    57    61    64   ar
    58    61    68    1
    59    27    22    1
    60    27    37    1
    61    27    29    1
    62    22    23   ar
    63    95    92    1
    64    40    37    1
    65    37    38    1
    66    21     2    1
    67    21    20   ar
    68     7    68    1
    69     7    55    1
    70    78    92    1
    71    78    87    1
    72    64    65    1
    73    54    55   ar
    74    54    50   ar
    75    68    69    1
    76    51    50    1
    77    92    94    1
    78    92    93    1
    79    31    29    1
    80    55    58   ar
    81    30    29    1
    82    29    32    1
    83    23    20   ar
    84    23    24    1
    85    50    56   ar
    86    88    87    1
    87    20    28    1
    88    87    89    1
    89    87    90    1
    90    99    96    1
    91    97    96    1
    92    58    59    1
    93    58    52   ar
    94    56    52   ar
    95    56    57    1
    96    96    28    1
    97    96    98    1
    98    36    33    1
    99    52    53    1
   100    28    33    1
   101    28    45    1
   102    33    35    1
   103    33    34    1
   104    46    45    1
   105    45    47    1
   106    45    48    1
