@<TRIPOS>MOLECULE
CSD_code = OLOMEH | q = 1 | S = 0 | Stoichiometry = C22H30CoN4O4(1+) | MND = 6
 61 66 0 0 0
SMALL
GASTEIGER

@<TRIPOS>ATOM
      1 CO          4.5265    3.3658    5.9432 Co.oh   1  UNL1        0.0000
      2 N           3.7779    2.2556    4.6324 N.3     1  UNL1        0.0000
      3 N           6.2161    2.1907    5.7354 N.4     1  UNL1        0.0000
      4 H           6.2069    1.4858    6.4794 H       1  UNL1        0.0000
      5 N           5.2917    4.4344    7.2790 N.3     1  UNL1        0.0000
      6 N           3.7907    2.2298    7.5074 N.4     1  UNL1        0.0000
      7 H           4.4201    1.4321    7.6404 H       1  UNL1        0.0000
      8 O           3.0175    4.4295    6.0729 O.3     1  UNL1        0.0000
      9 O           8.0957    1.0655    7.3552 O.3     1  UNL1        0.0000
     10 H           8.7750    0.4799    7.7028 H       1  UNL1        0.0000
     11 O           5.1580    4.4293    4.5664 O.3     1  UNL1        0.0000
     12 O           3.4679   -0.4243    8.0449 O.3     1  UNL1        0.0000
     13 H           3.3737   -1.2621    8.5079 H       1  UNL1        0.0000
     14 C           2.7842    2.5646    3.8725 C.3     1  UNL1        0.0000
     15 H           2.5392    1.9072    3.0366 H       1  UNL1        0.0000
     16 C           1.9469    3.6947    4.0473 C.ar    1  UNL1        0.0000
     17 C           2.1299    4.5842    5.1468 C.ar    1  UNL1        0.0000
     18 C           1.2481    5.6856    5.2487 C.ar    1  UNL1        0.0000
     19 H           1.3876    6.3577    6.0811 H       1  UNL1        0.0000
     20 C           0.2581    5.8945    4.3252 C.ar    1  UNL1        0.0000
     21 H          -0.3940    6.7487    4.4284 H       1  UNL1        0.0000
     22 C           0.0858    5.0212    3.2461 C.ar    1  UNL1        0.0000
     23 H          -0.6950    5.2022    2.5252 H       1  UNL1        0.0000
     24 C           0.9183    3.9426    3.1165 C.ar    1  UNL1        0.0000
     25 H           0.7996    3.2605    2.2871 H       1  UNL1        0.0000
     26 C           4.5661    1.0741    4.3625 C.3     1  UNL1        0.0000
     27 H           4.3448    0.6583    3.3736 H       1  UNL1        0.0000
     28 H           4.3434    0.3106    5.1193 H       1  UNL1        0.0000
     29 C           6.0321    1.4830    4.4610 C.3     1  UNL1        0.0000
     30 H           6.6820    0.6067    4.3754 H       1  UNL1        0.0000
     31 H           6.2583    2.1844    3.6548 H       1  UNL1        0.0000
     32 C           7.5474    2.8026    5.8463 C.3     1  UNL1        0.0000
     33 H           7.5211    3.5539    6.6366 H       1  UNL1        0.0000
     34 H           7.8084    3.2969    4.9110 H       1  UNL1        0.0000
     35 C           8.5985    1.7534    6.2227 C.3     1  UNL1        0.0000
     36 H           8.7703    1.0515    5.3963 H       1  UNL1        0.0000
     37 H           9.5444    2.2553    6.4515 H       1  UNL1        0.0000
     38 C           5.6396    5.6669    7.1373 C.3     1  UNL1        0.0000
     39 H           5.9162    6.2391    8.0244 H       1  UNL1        0.0000
     40 C           5.7212    6.3518    5.8990 C.ar    1  UNL1        0.0000
     41 C           5.4535    5.6832    4.6682 C.ar    1  UNL1        0.0000
     42 C           5.5631    6.4392    3.4777 C.ar    1  UNL1        0.0000
     43 H           5.3616    5.9318    2.5471 H       1  UNL1        0.0000
     44 C           5.9067    7.7650    3.5038 C.ar    1  UNL1        0.0000
     45 H           5.9746    8.3154    2.5776 H       1  UNL1        0.0000
     46 C           6.1623    8.4176    4.7146 C.ar    1  UNL1        0.0000
     47 H           6.4260    9.4628    4.7185 H       1  UNL1        0.0000
     48 C           6.0706    7.7169    5.8866 C.ar    1  UNL1        0.0000
     49 H           6.2628    8.2074    6.8299 H       1  UNL1        0.0000
     50 C           5.2416    3.8338    8.5931 C.3     1  UNL1        0.0000
     51 H           5.3245    4.5864    9.3845 H       1  UNL1        0.0000
     52 H           6.0727    3.1244    8.6985 H       1  UNL1        0.0000
     53 C           3.9143    3.0887    8.6930 C.3     1  UNL1        0.0000
     54 H           3.0990    3.8150    8.6644 H       1  UNL1        0.0000
     55 H           3.8623    2.5186    9.6258 H       1  UNL1        0.0000
     56 C           2.4601    1.6154    7.3995 C.3     1  UNL1        0.0000
     57 H           2.3143    1.2757    6.3734 H       1  UNL1        0.0000
     58 H           1.6906    2.3515    7.6301 H       1  UNL1        0.0000
     59 C           2.3479    0.3985    8.3231 C.3     1  UNL1        0.0000
     60 H           2.3513    0.7012    9.3783 H       1  UNL1        0.0000
     61 H           1.4094   -0.1264    8.1172 H       1  UNL1        0.0000
@<TRIPOS>BOND
     1    25    24    1
     2    23    22    1
     3    43    42    1
     4    45    44    1
     5    15    14    1
     6    24    22   ar
     7    24    16   ar
     8    22    20   ar
     9    27    26    1
    10    42    44   ar
    11    42    41   ar
    12    44    46   ar
    13    31    29    1
    14    14    16    1
    15    14     2    1
    16    16    17   ar
    17    20    21    1
    18    20    18   ar
    19    26    29    1
    20    26     2    1
    21    26    28    1
    22    30    29    1
    23    29     3    1
    24    11    41    1
    25    11     1    1
    26     2     1    1
    27    41    40   ar
    28    46    47    1
    29    46    48   ar
    30    34    32    1
    31    17    18   ar
    32    17     8    1
    33    18    19    1
    34    36    35    1
    35     3    32    1
    36     3     1    1
    37     3     4    1
    38    32    35    1
    39    32    33    1
    40    48    40   ar
    41    48    49    1
    42    40    38    1
    43     1     8    1
    44     1     5    1
    45     1     6    1
    46    35    37    1
    47    35     9    1
    48    57    56    1
    49    38     5    1
    50    38    39    1
    51     5    50    1
    52     9    10    1
    53    56     6    1
    54    56    58    1
    55    56    59    1
    56     6     7    1
    57     6    53    1
    58    12    59    1
    59    12    13    1
    60    61    59    1
    61    59    60    1
    62    50    53    1
    63    50    52    1
    64    50    51    1
    65    54    53    1
    66    53    55    1
