@<TRIPOS>MOLECULE
CSD_code = OVODUZ | q = -1 | S = 0 | Stoichiometry = C20H24CoN4O4(1-) | MND = 6
 53 58 0 0 0
SMALL
GASTEIGER

@<TRIPOS>ATOM
      1 CO          0.0000   -0.0000   -0.0000 Co.oh   1  UNL1        0.0000
      2 O           1.5248    0.8308    0.7972 O.3     1  UNL1        0.0000
      3 O           2.2083    1.2015   -3.2334 O.2     1  UNL1        0.0000
      4 N           0.8921    0.1592   -1.6936 N.am    1  UNL1        0.0000
      5 N           0.9493   -1.7285    0.2765 N.4     1  UNL1        0.0000
      6 H           1.8826   -1.4062    0.5397 H       1  UNL1        0.0000
      7 H           0.5222   -2.1495    1.1028 H       1  UNL1        0.0000
      8 C           2.0100    1.9241    0.2890 C.ar    1  UNL1        0.0000
      9 C           2.5519    2.9042    1.1497 C.ar    1  UNL1        0.0000
     10 H           2.5623    2.6928    2.2111 H       1  UNL1        0.0000
     11 C           3.0469    4.0960    0.6679 C.ar    1  UNL1        0.0000
     12 H           3.4431    4.8288    1.3611 H       1  UNL1        0.0000
     13 C           3.0359    4.3641   -0.6931 C.ar    1  UNL1        0.0000
     14 H           3.4162    5.3039   -1.0706 H       1  UNL1        0.0000
     15 C           2.5554    3.3996   -1.5600 C.ar    1  UNL1        0.0000
     16 H           2.5806    3.5562   -2.6301 H       1  UNL1        0.0000
     17 C           2.0455    2.1948   -1.1013 C.ar    1  UNL1        0.0000
     18 C           1.7035    1.1378   -2.0992 C.2     1  UNL1        0.0000
     19 C           0.7964   -0.9769   -2.5836 C.3     1  UNL1        0.0000
     20 H           1.1709   -0.6714   -3.5684 H       1  UNL1        0.0000
     21 H          -0.2466   -1.2883   -2.6691 H       1  UNL1        0.0000
     22 C           1.6438   -2.1441   -2.0610 C.3     1  UNL1        0.0000
     23 H           1.6989   -2.9302   -2.8183 H       1  UNL1        0.0000
     24 H           2.6557   -1.7771   -1.8710 H       1  UNL1        0.0000
     25 C           1.0588   -2.7354   -0.7814 C.3     1  UNL1        0.0000
     26 H           0.0576   -3.1237   -0.9874 H       1  UNL1        0.0000
     27 H           1.6888   -3.5734   -0.4413 H       1  UNL1        0.0000
     28 O          -1.5248   -0.8309   -0.7972 O.3     1  UNL1        0.0000
     29 O          -2.2082   -1.2016    3.2334 O.2     1  UNL1        0.0000
     30 N          -0.8921   -0.1592    1.6936 N.am    1  UNL1        0.0000
     31 N          -0.9493    1.7285   -0.2766 N.4     1  UNL1        0.0000
     32 H          -1.8825    1.4062   -0.5397 H       1  UNL1        0.0000
     33 H          -0.5221    2.1495   -1.1028 H       1  UNL1        0.0000
     34 C          -2.0100   -1.9241   -0.2889 C.ar    1  UNL1        0.0000
     35 C          -2.5519   -2.9042   -1.1497 C.ar    1  UNL1        0.0000
     36 H          -2.5623   -2.6928   -2.2111 H       1  UNL1        0.0000
     37 C          -3.0470   -4.0960   -0.6679 C.ar    1  UNL1        0.0000
     38 H          -3.4432   -4.8288   -1.3611 H       1  UNL1        0.0000
     39 C          -3.0359   -4.3641    0.6932 C.ar    1  UNL1        0.0000
     40 H          -3.4163   -5.3038    1.0707 H       1  UNL1        0.0000
     41 C          -2.5554   -3.3996    1.5600 C.ar    1  UNL1        0.0000
     42 H          -2.5806   -3.5562    2.6302 H       1  UNL1        0.0000
     43 C          -2.0455   -2.1948    1.1013 C.ar    1  UNL1        0.0000
     44 C          -1.7035   -1.1378    2.0992 C.2     1  UNL1        0.0000
     45 C          -0.7963    0.9769    2.5836 C.3     1  UNL1        0.0000
     46 H          -1.1709    0.6714    3.5684 H       1  UNL1        0.0000
     47 H           0.2466    1.2883    2.6691 H       1  UNL1        0.0000
     48 C          -1.6438    2.1441    2.0609 C.3     1  UNL1        0.0000
     49 H          -1.6989    2.9302    2.8183 H       1  UNL1        0.0000
     50 H          -2.6557    1.7771    1.8710 H       1  UNL1        0.0000
     51 C          -1.0588    2.7354    0.7814 C.3     1  UNL1        0.0000
     52 H          -0.0576    3.1237    0.9874 H       1  UNL1        0.0000
     53 H          -1.6888    3.5734    0.4412 H       1  UNL1        0.0000
@<TRIPOS>BOND
     1    20    19    1
     2     3    18    2
     3    23    22    1
     4    21    19    1
     5    16    15    1
     6    19    22    1
     7    19     4    1
     8    36    35    1
     9    18     4   am
    10    18    17    1
    11    22    24    1
    12    22    25    1
    13     4     1    1
    14    15    17   ar
    15    15    13   ar
    16    38    37    1
    17    35    37   ar
    18    35    34   ar
    19    33    31    1
    20    17     8   ar
    21    14    13    1
    22    26    25    1
    23    28    34    1
    24    28     1    1
    25    25    27    1
    26    25     5    1
    27    13    11   ar
    28    37    39   ar
    29    32    31    1
    30    34    43   ar
    31    31     1    1
    32    31    51    1
    33     1     5    1
    34     1     2    1
    35     1    30    1
    36     5     6    1
    37     5     7    1
    38     8     2    1
    39     8     9   ar
    40    53    51    1
    41    11     9   ar
    42    11    12    1
    43    39    40    1
    44    39    41   ar
    45    51    52    1
    46    51    48    1
    47    43    41   ar
    48    43    44    1
    49     9    10    1
    50    41    42    1
    51    30    44   am
    52    30    45    1
    53    50    48    1
    54    48    45    1
    55    48    49    1
    56    44    29    2
    57    45    47    1
    58    45    46    1
