@<TRIPOS>MOLECULE
CSD_code = OVODAF | q = -1 | S = 0 | Stoichiometry = C22H28CoN4O4(1-) | MND = 6
 59 64 0 0 0
SMALL
GASTEIGER

@<TRIPOS>ATOM
      1 CO          2.4840    3.8287    3.4682 Co.oh   1  UNL1        0.0000
      2 O           3.7316    4.7584    2.4717 O.3     1  UNL1        0.0000
      3 O           0.1363    4.5216    0.2251 O.2     1  UNL1        0.0000
      4 O           3.2354    2.1892    3.0210 O.3     1  UNL1        0.0000
      5 O           5.1376    3.4850    6.5510 O.2     1  UNL1        0.0000
      6 N           1.2741    3.7329    2.0262 N.am    1  UNL1        0.0000
      7 N           1.0115    2.7042    4.4289 N.4     1  UNL1        0.0000
      8 H           1.5612    1.8447    4.4059 H       1  UNL1        0.0000
      9 H           0.7388    2.8647    5.3963 H       1  UNL1        0.0000
     10 N           3.4776    3.9404    5.0753 N.am    1  UNL1        0.0000
     11 N           1.7230    5.6476    4.0780 N.4     1  UNL1        0.0000
     12 H           1.7442    6.3110    3.3042 H       1  UNL1        0.0000
     13 H           0.7513    5.5378    4.3586 H       1  UNL1        0.0000
     14 C           3.4128    5.5602    1.5000 C.ar    1  UNL1        0.0000
     15 C           4.3837    6.5138    1.1102 C.ar    1  UNL1        0.0000
     16 H           5.3379    6.4810    1.6169 H       1  UNL1        0.0000
     17 C           4.1422    7.4446    0.1274 C.ar    1  UNL1        0.0000
     18 H           4.9145    8.1585   -0.1331 H       1  UNL1        0.0000
     19 C           2.9168    7.4767   -0.5249 C.ar    1  UNL1        0.0000
     20 H           2.7197    8.2131   -1.2924 H       1  UNL1        0.0000
     21 C           1.9643    6.5362   -0.1881 C.ar    1  UNL1        0.0000
     22 H           1.0109    6.5049   -0.6983 H       1  UNL1        0.0000
     23 C           2.1782    5.5837    0.8012 C.ar    1  UNL1        0.0000
     24 C           1.1093    4.5625    0.9986 C.2     1  UNL1        0.0000
     25 C           0.3630    2.6155    2.1270 C.3     1  UNL1        0.0000
     26 H           0.9023    1.6925    1.8819 H       1  UNL1        0.0000
     27 H          -0.4541    2.7573    1.4097 H       1  UNL1        0.0000
     28 C          -0.1667    2.5167    3.5664 C.3     1  UNL1        0.0000
     29 C          -1.1831    3.6298    3.8244 C.3     1  UNL1        0.0000
     30 H          -1.3430    3.7841    4.8924 H       1  UNL1        0.0000
     31 H          -2.1360    3.3724    3.3681 H       1  UNL1        0.0000
     32 H          -0.8390    4.5542    3.3686 H       1  UNL1        0.0000
     33 C          -0.8065    1.1506    3.8349 C.3     1  UNL1        0.0000
     34 H          -1.1921    1.0983    4.8535 H       1  UNL1        0.0000
     35 H          -0.0738    0.3576    3.6981 H       1  UNL1        0.0000
     36 H          -1.6289    0.9751    3.1455 H       1  UNL1        0.0000
     37 C           4.4590    1.8687    3.3385 C.ar    1  UNL1        0.0000
     38 C           5.1106    0.9161    2.5255 C.ar    1  UNL1        0.0000
     39 H           4.5765    0.5606    1.6553 H       1  UNL1        0.0000
     40 C           6.3713    0.4493    2.8172 C.ar    1  UNL1        0.0000
     41 H           6.8366   -0.2807    2.1650 H       1  UNL1        0.0000
     42 C           7.0484    0.9144    3.9358 C.ar    1  UNL1        0.0000
     43 H           8.0425    0.5546    4.1662 H       1  UNL1        0.0000
     44 C           6.4305    1.8442    4.7479 C.ar    1  UNL1        0.0000
     45 H           6.9233    2.2200    5.6343 H       1  UNL1        0.0000
     46 C           5.1566    2.3298    4.4802 C.ar    1  UNL1        0.0000
     47 C           4.5917    3.3084    5.4482 C.2     1  UNL1        0.0000
     48 C           2.9653    4.9259    6.0025 C.3     1  UNL1        0.0000
     49 H           3.7558    5.1769    6.7205 H       1  UNL1        0.0000
     50 H           2.1126    4.5182    6.5724 H       1  UNL1        0.0000
     51 C           2.5038    6.1637    5.2206 C.3     1  UNL1        0.0000
     52 C           3.7158    6.9242    4.6947 C.3     1  UNL1        0.0000
     53 H           3.4104    7.7593    4.0646 H       1  UNL1        0.0000
     54 H           4.3248    6.2429    4.1070 H       1  UNL1        0.0000
     55 H           4.3106    7.3040    5.5217 H       1  UNL1        0.0000
     56 C           1.6320    7.0800    6.0851 C.3     1  UNL1        0.0000
     57 H           1.2972    7.9426    5.5096 H       1  UNL1        0.0000
     58 H           2.1984    7.4378    6.9414 H       1  UNL1        0.0000
     59 H           0.7563    6.5481    6.4573 H       1  UNL1        0.0000
@<TRIPOS>BOND
     1    20    19    1
     2    22    21    1
     3    19    21   ar
     4    19    17   ar
     5    21    23   ar
     6    18    17    1
     7    17    15   ar
     8     3    24    2
     9    23    24    1
    10    23    14   ar
    11    24     6   am
    12    15    14   ar
    13    15    16    1
    14    27    25    1
    15    14     2    1
    16    39    38    1
    17    26    25    1
    18     6    25    1
    19     6     1    1
    20    25    28    1
    21    41    40    1
    22     2     1    1
    23    38    40   ar
    24    38    37   ar
    25    40    42   ar
    26     4    37    1
    27     4     1    1
    28    36    33    1
    29    12    11    1
    30    37    46   ar
    31    31    29    1
    32    32    29    1
    33     1    11    1
    34     1     7    1
    35     1    10    1
    36    28    29    1
    37    28    33    1
    38    28     7    1
    39    35    33    1
    40    29    30    1
    41    33    34    1
    42    42    43    1
    43    42    44   ar
    44    53    52    1
    45    11    13    1
    46    11    51    1
    47    54    52    1
    48     8     7    1
    49     7     9    1
    50    46    44   ar
    51    46    47    1
    52    52    51    1
    53    52    55    1
    54    44    45    1
    55    10    47   am
    56    10    48    1
    57    51    48    1
    58    51    56    1
    59    47     5    2
    60    57    56    1
    61    48    50    1
    62    48    49    1
    63    56    59    1
    64    56    58    1
