@<TRIPOS>MOLECULE
CSD_code = OVOPOG | q = 0 | S = 0 | Stoichiometry = C45H41CoN2P2 | MND = 5
 91 99 0 0 0
SMALL
GASTEIGER

@<TRIPOS>ATOM
      1 CO         13.0787    1.6006    8.9896 Co.oh   1  UNL1        0.0000
      2 P          12.9695    0.9786   11.1728 P.3     1  UNL1        0.0000
      3 P          14.0807   -0.0734    8.0408 P.3     1  UNL1        0.0000
      4 N          11.3568    1.0715    8.4231 N.pl3   1  UNL1        0.0000
      5 C          13.2769    3.1097   13.0209 C.ar    1  UNL1        0.0000
      6 H          14.2847    2.7591   13.1904 H       1  UNL1        0.0000
      7 C          10.9747    3.3106    8.8702 C.2     1  UNL1        0.0000
      8 C           8.9978    1.8435    8.4000 C.ar    1  UNL1        0.0000
      9 C           8.3193    1.0448    9.3197 C.ar    1  UNL1        0.0000
     10 H           8.8741    0.5383   10.0986 H       1  UNL1        0.0000
     11 C          12.8829    4.4749    9.4544 C.2     1  UNL1        0.0000
     12 H          13.9525    4.4681    9.6048 H       1  UNL1        0.0000
     13 C           6.9462    0.9053    9.2455 C.ar    1  UNL1        0.0000
     14 H           6.4309    0.2871    9.9663 H       1  UNL1        0.0000
     15 C          11.5429    4.7199   13.4385 C.ar    1  UNL1        0.0000
     16 H          11.2005    5.6191   13.9294 H       1  UNL1        0.0000
     17 C          10.8883   -0.2334    8.0120 C.3     1  UNL1        0.0000
     18 H           9.8531   -0.1639    7.6528 H       1  UNL1        0.0000
     19 H          10.8965   -0.9086    8.8783 H       1  UNL1        0.0000
     20 C           9.8667   -1.2203   12.8205 C.ar    1  UNL1        0.0000
     21 H           9.0463   -1.0906   13.5121 H       1  UNL1        0.0000
     22 N          12.3333    3.3195    9.0467 N.pl3   1  UNL1        0.0000
     23 C          11.7820   -0.3146   11.6857 C.ar    1  UNL1        0.0000
     24 C          15.9045    1.0757    3.9742 C.ar    1  UNL1        0.0000
     25 H          16.3178    1.3486    3.0139 H       1  UNL1        0.0000
     26 C          17.6917   -1.9219   10.2127 C.ar    1  UNL1        0.0000
     27 H          18.5442   -2.3174   10.7449 H       1  UNL1        0.0000
     28 C          11.7337   -0.8558    6.8931 C.3     1  UNL1        0.0000
     29 H          11.1356   -1.6295    6.4029 H       1  UNL1        0.0000
     30 H          11.9640   -0.0863    6.1495 H       1  UNL1        0.0000
     31 C          12.1716    5.6271    9.6717 C.2     1  UNL1        0.0000
     32 H          12.6821    6.5233    9.9865 H       1  UNL1        0.0000
     33 C          16.2573   -0.1299    4.5607 C.ar    1  UNL1        0.0000
     34 H          16.9457   -0.7937    4.0571 H       1  UNL1        0.0000
     35 C          15.4274   -2.1563    9.4510 C.ar    1  UNL1        0.0000
     36 H          14.5320   -2.7580    9.3887 H       1  UNL1        0.0000
     37 C          10.1886    4.4554    9.0892 C.2     1  UNL1        0.0000
     38 H           9.1192    4.3881    8.9566 H       1  UNL1        0.0000
     39 C          10.7830    5.6248    9.4790 C.2     1  UNL1        0.0000
     40 H          10.2023    6.5197    9.6438 H       1  UNL1        0.0000
     41 C          15.6455    1.1082   11.8002 C.ar    1  UNL1        0.0000
     42 H          15.6240    1.9214   11.0885 H       1  UNL1        0.0000
     43 C          10.6961    4.0278   12.5879 C.ar    1  UNL1        0.0000
     44 H           9.6917    4.3855   12.4106 H       1  UNL1        0.0000
     45 C          11.1383    2.8823   11.9569 C.ar    1  UNL1        0.0000
     46 H          10.4803    2.3521   11.2815 H       1  UNL1        0.0000
     47 C          12.4318    2.4054   12.1718 C.ar    1  UNL1        0.0000
     48 C          15.0290    1.9311    4.6217 C.ar    1  UNL1        0.0000
     49 H          14.7578    2.8733    4.1673 H       1  UNL1        0.0000
     50 C          10.0542   -2.4413   12.1948 C.ar    1  UNL1        0.0000
     51 H           9.3774   -3.2602   12.3893 H       1  UNL1        0.0000
     52 C          10.4583    2.0336    8.5198 C.2     1  UNL1        0.0000
     53 C          15.6735   -1.0187   13.5613 C.ar    1  UNL1        0.0000
     54 H          15.6831   -1.8538   14.2473 H       1  UNL1        0.0000
     55 C          10.7250   -0.1612   12.5746 C.ar    1  UNL1        0.0000
     56 H          10.5738    0.7773   13.0876 H       1  UNL1        0.0000
     57 C          14.4875   -0.6493   12.9518 C.ar    1  UNL1        0.0000
     58 H          13.5821   -1.1953   13.1742 H       1  UNL1        0.0000
     59 C          16.5232   -2.6577   10.1316 C.ar    1  UNL1        0.0000
     60 H          16.4628   -3.6296   10.6004 H       1  UNL1        0.0000
     61 C          15.4883   -0.9080    8.8437 C.ar    1  UNL1        0.0000
     62 C          14.4636    0.4201   12.0637 C.ar    1  UNL1        0.0000
     63 C          16.6675   -0.1713    8.9379 C.ar    1  UNL1        0.0000
     64 H          16.7066    0.8058    8.4762 H       1  UNL1        0.0000
     65 C          15.7316   -0.4855    5.7888 C.ar    1  UNL1        0.0000
     66 H          16.0126   -1.4239    6.2490 H       1  UNL1        0.0000
     67 C          16.8418   -0.3232   13.3024 C.ar    1  UNL1        0.0000
     68 H          17.7638   -0.6152   13.7838 H       1  UNL1        0.0000
     69 C          17.7629   -0.6770    9.6082 C.ar    1  UNL1        0.0000
     70 H          18.6753   -0.1011    9.6646 H       1  UNL1        0.0000
     71 C           8.2719    2.4967    7.4071 C.ar    1  UNL1        0.0000
     72 H           8.7943    3.1105    6.6869 H       1  UNL1        0.0000
     73 C          14.5079    1.5794    5.8542 C.ar    1  UNL1        0.0000
     74 H          13.8376    2.2426    6.3917 H       1  UNL1        0.0000
     75 C          13.0276   -1.4636    7.4193 C.3     1  UNL1        0.0000
     76 H          13.5592   -1.9991    6.6272 H       1  UNL1        0.0000
     77 H          12.7935   -2.1639    8.2225 H       1  UNL1        0.0000
     78 C          11.1196   -2.6105   11.3237 C.ar    1  UNL1        0.0000
     79 H          11.2794   -3.5654   10.8422 H       1  UNL1        0.0000
     80 C          12.8301    4.2573   13.6523 C.ar    1  UNL1        0.0000
     81 H          13.4937    4.7962   14.3134 H       1  UNL1        0.0000
     82 C          16.8242    0.7462   12.4222 C.ar    1  UNL1        0.0000
     83 H          17.7329    1.2929   12.2162 H       1  UNL1        0.0000
     84 C           6.8986    2.3511    7.3341 C.ar    1  UNL1        0.0000
     85 H           6.3456    2.8592    6.5574 H       1  UNL1        0.0000
     86 C          11.9687   -1.5515   11.0706 C.ar    1  UNL1        0.0000
     87 H          12.8151   -1.6575   10.4038 H       1  UNL1        0.0000
     88 C          14.8524    0.3711    6.4434 C.ar    1  UNL1        0.0000
     89 C           6.2324    1.5575    8.2534 C.ar    1  UNL1        0.0000
     90 H           5.1595    1.4472    8.1965 H       1  UNL1        0.0000
     91 H          14.4064    2.1735    9.1178 H       1  UNL1        0.0000
@<TRIPOS>BOND
     1    25    24    1
     2    24    33   ar
     3    24    48   ar
     4    34    33    1
     5    49    48    1
     6    33    65   ar
     7    48    73   ar
     8    65    66    1
     9    65    88   ar
    10    73    74    1
    11    73    88   ar
    12    30    28    1
    13    29    28    1
    14    88     3    1
    15    85    84    1
    16    76    75    1
    17    72    71    1
    18    28    75    1
    19    28    17    1
    20    84    71   ar
    21    84    89   ar
    22    71     8   ar
    23    75     3    1
    24    75    77    1
    25    18    17    1
    26    17     4    1
    27    17    19    1
    28     3    61    1
    29     3     1    1
    30    90    89    1
    31    89    13   ar
    32     8    52    1
    33     8     9   ar
    34     4    52    1
    35     4     1    1
    36    64    63    1
    37    52     7    2
    38    61    63   ar
    39    61    35   ar
    40     7    22    1
    41     7    37    1
    42    63    69   ar
    43    38    37    1
    44     1    22    1
    45     1    91    1
    46     1     2    1
    47    22    11    1
    48    37    39    2
    49    13     9   ar
    50    13    14    1
    51     9    10    1
    52    36    35    1
    53    35    59   ar
    54    11    12    1
    55    11    31    2
    56    39    40    1
    57    39    31    1
    58    69    70    1
    59    69    26   ar
    60    31    32    1
    61    59    26   ar
    62    59    60    1
    63    26    27    1
    64    87    86    1
    65    79    78    1
    66    86    78   ar
    67    86    23   ar
    68    42    41    1
    69     2    23    1
    70     2    62    1
    71     2    47    1
    72    46    45    1
    73    78    50   ar
    74    23    55   ar
    75    41    62   ar
    76    41    82   ar
    77    45    47   ar
    78    45    43   ar
    79    62    57   ar
    80    47     5   ar
    81    50    51    1
    82    50    20   ar
    83    83    82    1
    84    44    43    1
    85    82    67   ar
    86    55    20   ar
    87    55    56    1
    88    43    15   ar
    89    20    21    1
    90    57    58    1
    91    57    53   ar
    92     5     6    1
    93     5    80   ar
    94    67    53   ar
    95    67    68    1
    96    15    80   ar
    97    15    16    1
    98    53    54    1
    99    80    81    1
