@<TRIPOS>MOLECULE
CSD_code = OVOQOH | q = 0 | S = 0 | Stoichiometry = C54H45CoN2P2Si | MND = 5
 105 115 0 0 0
SMALL
GASTEIGER

@<TRIPOS>ATOM
      1 CO          6.3249   15.5015    6.3907 Co.oh   1  UNL1        0.0000
      2 P           4.2440   16.1236    6.4634 P.3     1  UNL1        0.0000
      3 P           6.8091   15.0191    8.5573 P.3     1  UNL1        0.0000
      4 SI          6.9393   17.6835    6.1861 Si      1  UNL1        0.0000
      5 H           6.2396   18.7431    6.9838 H       1  UNL1        0.0000
      6 H           8.3555   18.0782    6.4755 H       1  UNL1        0.0000
      7 N           7.8586   14.7990    5.5014 N.pl3   1  UNL1        0.0000
      8 N           5.4843   13.8966    5.6848 N.pl3   1  UNL1        0.0000
      9 C           9.1432   15.1727    5.5906 C.3     1  UNL1        0.0000
     10 H           9.3516   16.0236    6.2213 H       1  UNL1        0.0000
     11 C          10.1714   14.5577    4.9221 C.2     1  UNL1        0.0000
     12 H          11.1802   14.9205    5.0353 H       1  UNL1        0.0000
     13 C           9.8821   13.4894    4.0609 C.2     1  UNL1        0.0000
     14 H          10.6620   13.0260    3.4760 H       1  UNL1        0.0000
     15 C           8.5891   13.0497    3.9901 C.2     1  UNL1        0.0000
     16 H           8.3150   12.2255    3.3505 H       1  UNL1        0.0000
     17 C           7.5874   13.6755    4.7585 C.2     1  UNL1        0.0000
     18 C           6.2472   13.2134    4.8398 C.3     1  UNL1        0.0000
     19 C           5.7348   12.1517    3.9594 C.ar    1  UNL1        0.0000
     20 C           6.2955   10.8760    3.9394 C.ar    1  UNL1        0.0000
     21 H           7.1061   10.6392    4.6147 H       1  UNL1        0.0000
     22 C           5.7960    9.9067    3.0893 C.ar    1  UNL1        0.0000
     23 H           6.2349    8.9192    3.0853 H       1  UNL1        0.0000
     24 C           4.7333   10.1961    2.2494 C.ar    1  UNL1        0.0000
     25 H           4.3460    9.4373    1.5858 H       1  UNL1        0.0000
     26 C           4.1658   11.4598    2.2681 C.ar    1  UNL1        0.0000
     27 H           3.3353   11.6900    1.6167 H       1  UNL1        0.0000
     28 C           4.6592   12.4314    3.1169 C.ar    1  UNL1        0.0000
     29 H           4.2168   13.4183    3.1292 H       1  UNL1        0.0000
     30 C           4.2177   13.5010    6.0607 C.ar    1  UNL1        0.0000
     31 C           3.7380   12.1890    6.0876 C.ar    1  UNL1        0.0000
     32 H           4.3683   11.3674    5.7871 H       1  UNL1        0.0000
     33 C           2.4581   11.9357    6.5404 C.ar    1  UNL1        0.0000
     34 H           2.1023   10.9157    6.5647 H       1  UNL1        0.0000
     35 C           1.6260   12.9635    6.9574 C.ar    1  UNL1        0.0000
     36 H           0.6217   12.7474    7.2901 H       1  UNL1        0.0000
     37 C           2.0936   14.2673    6.9630 C.ar    1  UNL1        0.0000
     38 H           1.4607   15.0753    7.3020 H       1  UNL1        0.0000
     39 C           3.3877   14.5241    6.5506 C.ar    1  UNL1        0.0000
     40 C           3.5134   16.6818    4.8845 C.ar    1  UNL1        0.0000
     41 C           4.2341   16.4352    3.7215 C.ar    1  UNL1        0.0000
     42 H           5.2256   16.0046    3.7918 H       1  UNL1        0.0000
     43 C           3.7010   16.7521    2.4864 C.ar    1  UNL1        0.0000
     44 H           4.2729   16.5647    1.5893 H       1  UNL1        0.0000
     45 C           2.4412   17.3206    2.4050 C.ar    1  UNL1        0.0000
     46 H           2.0257   17.5807    1.4424 H       1  UNL1        0.0000
     47 C           1.7107   17.5523    3.5595 C.ar    1  UNL1        0.0000
     48 H           0.7232   17.9867    3.4951 H       1  UNL1        0.0000
     49 C           2.2365   17.2259    4.7960 C.ar    1  UNL1        0.0000
     50 H           1.6579   17.4000    5.6926 H       1  UNL1        0.0000
     51 C           3.4159   17.1526    7.7058 C.ar    1  UNL1        0.0000
     52 C           3.2740   18.5238    7.5102 C.ar    1  UNL1        0.0000
     53 H           3.5746   18.9591    6.5675 H       1  UNL1        0.0000
     54 C           2.7447   19.3173    8.5109 C.ar    1  UNL1        0.0000
     55 H           2.6297   20.3798    8.3509 H       1  UNL1        0.0000
     56 C           2.3643   18.7538    9.7185 C.ar    1  UNL1        0.0000
     57 H           1.9477   19.3753   10.4976 H       1  UNL1        0.0000
     58 C           2.5269   17.3942    9.9293 C.ar    1  UNL1        0.0000
     59 H           2.2447   16.9555   10.8756 H       1  UNL1        0.0000
     60 C           3.0614   16.5997    8.9330 C.ar    1  UNL1        0.0000
     61 H           3.2071   15.5409    9.0968 H       1  UNL1        0.0000
     62 C           8.5589   14.8515    9.0783 C.ar    1  UNL1        0.0000
     63 C           9.1321   13.7092    9.6223 C.ar    1  UNL1        0.0000
     64 H           8.5473   12.8094    9.7501 H       1  UNL1        0.0000
     65 C          10.4618   13.7180   10.0075 C.ar    1  UNL1        0.0000
     66 H          10.9016   12.8238   10.4261 H       1  UNL1        0.0000
     67 C          11.2263   14.8629    9.8649 C.ar    1  UNL1        0.0000
     68 H          12.2639   14.8614   10.1650 H       1  UNL1        0.0000
     69 C          10.6536   16.0123    9.3435 C.ar    1  UNL1        0.0000
     70 H          11.2423   16.9122    9.2406 H       1  UNL1        0.0000
     71 C           9.3284   16.0061    8.9544 C.ar    1  UNL1        0.0000
     72 H           8.8672   16.8981    8.5514 H       1  UNL1        0.0000
     73 C           6.2815   15.8558   10.0983 C.ar    1  UNL1        0.0000
     74 C           6.3283   15.2134   11.3323 C.ar    1  UNL1        0.0000
     75 H           6.6420   14.1801   11.3901 H       1  UNL1        0.0000
     76 C           5.9764   15.8970   12.4803 C.ar    1  UNL1        0.0000
     77 H           6.0064   15.3934   13.4361 H       1  UNL1        0.0000
     78 C           5.5947   17.2283   12.4103 C.ar    1  UNL1        0.0000
     79 H           5.3225   17.7583   13.3114 H       1  UNL1        0.0000
     80 C           5.5729   17.8778   11.1885 C.ar    1  UNL1        0.0000
     81 H           5.2864   18.9175   11.1305 H       1  UNL1        0.0000
     82 C           5.9152   17.1935   10.0353 C.ar    1  UNL1        0.0000
     83 H           5.9016   17.6905    9.0760 H       1  UNL1        0.0000
     84 C           6.1661   13.3273    8.7577 C.ar    1  UNL1        0.0000
     85 C           4.9841   13.0524    9.4363 C.ar    1  UNL1        0.0000
     86 H           4.4750   13.8440    9.9687 H       1  UNL1        0.0000
     87 C           4.4623   11.7713    9.4399 C.ar    1  UNL1        0.0000
     88 H           3.5446   11.5677    9.9728 H       1  UNL1        0.0000
     89 C           5.1078   10.7535    8.7592 C.ar    1  UNL1        0.0000
     90 H           4.6997    9.7535    8.7651 H       1  UNL1        0.0000
     91 C           6.2706   11.0251    8.0547 C.ar    1  UNL1        0.0000
     92 H           6.7677   10.2353    7.5087 H       1  UNL1        0.0000
     93 C           6.7905   12.3041    8.0438 C.ar    1  UNL1        0.0000
     94 H           7.6864   12.5242    7.4762 H       1  UNL1        0.0000
     95 C           6.7023   18.2989    4.4003 C.ar    1  UNL1        0.0000
     96 C           7.4986   17.8183    3.3676 C.ar    1  UNL1        0.0000
     97 H           8.2801   17.1045    3.5916 H       1  UNL1        0.0000
     98 C           7.3102   18.2335    2.0624 C.ar    1  UNL1        0.0000
     99 H           7.9427   17.8472    1.2743 H       1  UNL1        0.0000
    100 C           6.3090   19.1425    1.7622 C.ar    1  UNL1        0.0000
    101 H           6.1556   19.4662    0.7422 H       1  UNL1        0.0000
    102 C           5.5085   19.6355    2.7781 C.ar    1  UNL1        0.0000
    103 H           4.7262   20.3475    2.5532 H       1  UNL1        0.0000
    104 C           5.7085   19.2135    4.0796 C.ar    1  UNL1        0.0000
    105 H           5.0813   19.6070    4.8672 H       1  UNL1        0.0000
@<TRIPOS>BOND
     1   101   100    1
     2    99    98    1
     3    46    45    1
     4    25    24    1
     5    44    43    1
     6    27    26    1
     7   100    98   ar
     8   100   102   ar
     9    98    96   ar
    10    24    26   ar
    11    24    22   ar
    12    26    28   ar
    13    45    43   ar
    14    45    47   ar
    15    43    41   ar
    16   103   102    1
    17   102   104   ar
    18    23    22    1
    19    22    20   ar
    20    28    29    1
    21    28    19   ar
    22    16    15    1
    23    96    97    1
    24    96    95   ar
    25    14    13    1
    26    48    47    1
    27    47    49   ar
    28    41    42    1
    29    41    40   ar
    30    20    19   ar
    31    20    21    1
    32    19    18    1
    33    15    13    1
    34    15    17    2
    35    13    11    2
    36   104    95   ar
    37   104   105    1
    38    95     4    1
    39    17    18    1
    40    17     7    1
    41    49    40   ar
    42    49    50    1
    43    18     8    1
    44    40     2    1
    45    11    12    1
    46    11     9    1
    47     7     9    1
    48     7     1    1
    49     9    10    1
    50     8    30    1
    51     8     1    1
    52    32    31    1
    53    30    31   ar
    54    30    39   ar
    55    31    33   ar
    56     4     1    1
    57     4     6    1
    58     4     5    1
    59     1     2    1
    60     1     3    1
    61     2    39    1
    62     2    51    1
    63    33    34    1
    64    33    35   ar
    65    39    37   ar
    66    53    52    1
    67    35    37   ar
    68    35    36    1
    69    37    38    1
    70    94    93    1
    71    92    91    1
    72    52    51   ar
    73    52    54   ar
    74    51    60   ar
    75    93    91   ar
    76    93    84   ar
    77    91    89   ar
    78    55    54    1
    79    54    56   ar
    80    72    71    1
    81     3    84    1
    82     3    62    1
    83     3    73    1
    84    84    85   ar
    85    89    90    1
    86    89    87   ar
    87    60    61    1
    88    60    58   ar
    89    71    62   ar
    90    71    69   ar
    91    83    82    1
    92    62    63   ar
    93    70    69    1
    94    69    67   ar
    95    85    87   ar
    96    85    86    1
    97    87    88    1
    98    63    64    1
    99    63    65   ar
   100    56    58   ar
   101    56    57    1
   102    67    65   ar
   103    67    68    1
   104    58    59    1
   105    65    66    1
   106    82    73   ar
   107    82    80   ar
   108    73    74   ar
   109    81    80    1
   110    80    78   ar
   111    74    75    1
   112    74    76   ar
   113    78    76   ar
   114    78    79    1
   115    76    77    1
