@<TRIPOS>MOLECULE
CSD_code = PAKVUV | q = 0 | S = 0 | Stoichiometry = C53H56CoN5OSi | MND = 6
 117 127 0 0 0
SMALL
GASTEIGER

@<TRIPOS>ATOM
      1 CO          7.5813   11.3735    4.1428 Co.oh   1  UNL1        0.0000
      2 H           8.1743   10.0951    4.3034 H       1  UNL1        0.0000
      3 SI          6.8679   11.3977    6.2956 Si      1  UNL1        0.0000
      4 O           8.0618   11.7410    2.1588 O.3     1  UNL1        0.0000
      5 N           6.9212   13.1490    3.4301 N.pl3   1  UNL1        0.0000
      6 N           4.6864   10.8321    3.8425 N.pl3   1  UNL1        0.0000
      7 N           5.8813    9.2425    3.0354 N.pl3   1  UNL1        0.0000
      8 N           9.5259   13.3614    5.1732 N.pl3   1  UNL1        0.0000
      9 N          10.4951   11.5757    4.4903 N.pl3   1  UNL1        0.0000
     10 C           5.9676   10.4684    3.5981 C.3     1  UNL1        0.0000
     11 C           9.2780   12.1382    4.6497 C.3     1  UNL1        0.0000
     12 C           3.8202    9.8397    3.4578 C.2     1  UNL1        0.0000
     13 H           2.7608    9.9293    3.5894 H       1  UNL1        0.0000
     14 C           4.5723    8.8404    2.9500 C.2     1  UNL1        0.0000
     15 H           4.2965    7.8912    2.5366 H       1  UNL1        0.0000
     16 C           4.2055   12.1072    4.2484 C.ar    1  UNL1        0.0000
     17 C           4.2850   12.5144    5.5798 C.ar    1  UNL1        0.0000
     18 C           3.7406   13.7474    5.9219 C.ar    1  UNL1        0.0000
     19 H           3.7978   14.0713    6.9514 H       1  UNL1        0.0000
     20 C           3.1219   14.5592    4.9861 C.ar    1  UNL1        0.0000
     21 C           3.0669   14.1312    3.6663 C.ar    1  UNL1        0.0000
     22 H           2.6028   14.7621    2.9218 H       1  UNL1        0.0000
     23 C           3.6094   12.9166    3.2791 C.ar    1  UNL1        0.0000
     24 C           3.5915   12.5019    1.8377 C.3     1  UNL1        0.0000
     25 H           4.5861   12.1850    1.5250 H       1  UNL1        0.0000
     26 H           3.2837   13.3338    1.2094 H       1  UNL1        0.0000
     27 H           2.9046   11.6720    1.6695 H       1  UNL1        0.0000
     28 C           2.5534   15.8910    5.3726 C.3     1  UNL1        0.0000
     29 H           2.3670   15.9403    6.4428 H       1  UNL1        0.0000
     30 H           1.6219   16.0825    4.8437 H       1  UNL1        0.0000
     31 H           3.2563   16.6823    5.1110 H       1  UNL1        0.0000
     32 C           4.9418   11.6600    6.5907 C.3     1  UNL1        0.0000
     33 H           4.4952   10.6675    6.5675 H       1  UNL1        0.0000
     34 H           4.7787   12.0670    7.5874 H       1  UNL1        0.0000
     35 C           6.9091    8.4873    2.3989 C.ar    1  UNL1        0.0000
     36 C           7.1515    8.7242    1.0437 C.ar    1  UNL1        0.0000
     37 C           8.0810    7.9355    0.3873 C.ar    1  UNL1        0.0000
     38 H           8.2756    8.1145   -0.6608 H       1  UNL1        0.0000
     39 C           8.7532    6.9107    1.0370 C.ar    1  UNL1        0.0000
     40 C           8.4839    6.6886    2.3769 C.ar    1  UNL1        0.0000
     41 H           8.9895    5.8878    2.8966 H       1  UNL1        0.0000
     42 C           7.5628    7.4583    3.0731 C.ar    1  UNL1        0.0000
     43 C           7.2710    7.1724    4.5114 C.3     1  UNL1        0.0000
     44 H           7.5724    8.0194    5.1255 H       1  UNL1        0.0000
     45 H           7.8100    6.2901    4.8453 H       1  UNL1        0.0000
     46 H           6.2053    7.0091    4.6663 H       1  UNL1        0.0000
     47 C           9.7193    6.0526    0.2776 C.3     1  UNL1        0.0000
     48 H          10.5469    6.6543   -0.0947 H       1  UNL1        0.0000
     49 H           9.2272    5.5999   -0.5827 H       1  UNL1        0.0000
     50 H          10.1173    5.2611    0.9063 H       1  UNL1        0.0000
     51 C           6.4252    9.8071    0.3092 C.3     1  UNL1        0.0000
     52 H           5.3499    9.7544    0.4797 H       1  UNL1        0.0000
     53 H           6.6137    9.7418   -0.7593 H       1  UNL1        0.0000
     54 H           6.7862   10.7696    0.6674 H       1  UNL1        0.0000
     55 C           8.5894   14.3536    5.5620 C.ar    1  UNL1        0.0000
     56 C           8.5900   15.5789    4.8957 C.ar    1  UNL1        0.0000
     57 C           7.7254   16.5729    5.3292 C.ar    1  UNL1        0.0000
     58 H           7.7213   17.5243    4.8166 H       1  UNL1        0.0000
     59 C           6.8574   16.3627    6.3912 C.ar    1  UNL1        0.0000
     60 C           6.8695   15.1316    7.0268 C.ar    1  UNL1        0.0000
     61 H           6.2002   14.9559    7.8570 H       1  UNL1        0.0000
     62 C           7.7333   14.1144    6.6406 C.ar    1  UNL1        0.0000
     63 C           7.7374   12.8131    7.3400 C.3     1  UNL1        0.0000
     64 H           7.2512   12.9063    8.3089 H       1  UNL1        0.0000
     65 H           8.7650   12.4924    7.5037 H       1  UNL1        0.0000
     66 C           5.9384   17.4520    6.8563 C.3     1  UNL1        0.0000
     67 H           5.0116   17.0359    7.2443 H       1  UNL1        0.0000
     68 H           5.7073   18.1383    6.0448 H       1  UNL1        0.0000
     69 H           6.4113   18.0237    7.6560 H       1  UNL1        0.0000
     70 C           9.4790   15.8172    3.7108 C.3     1  UNL1        0.0000
     71 H          10.4812   16.1141    4.0223 H       1  UNL1        0.0000
     72 H           9.0701   16.6111    3.0904 H       1  UNL1        0.0000
     73 H           9.5645   14.9171    3.1039 H       1  UNL1        0.0000
     74 C          10.8749   13.5569    5.3318 C.2     1  UNL1        0.0000
     75 H          11.2736   14.4590    5.7485 H       1  UNL1        0.0000
     76 C          11.4837   12.4317    4.9028 C.2     1  UNL1        0.0000
     77 H          12.5204   12.1652    4.8574 H       1  UNL1        0.0000
     78 C          10.8287   10.2627    4.0525 C.ar    1  UNL1        0.0000
     79 C          10.9403    9.2503    5.0069 C.ar    1  UNL1        0.0000
     80 C          11.3786    8.0019    4.6001 C.ar    1  UNL1        0.0000
     81 H          11.4696    7.2123    5.3324 H       1  UNL1        0.0000
     82 C          11.7258    7.7499    3.2798 C.ar    1  UNL1        0.0000
     83 C          11.6031    8.7724    2.3539 C.ar    1  UNL1        0.0000
     84 H          11.8710    8.5923    1.3226 H       1  UNL1        0.0000
     85 C          11.1627   10.0371    2.7189 C.ar    1  UNL1        0.0000
     86 C          11.0516   11.1350    1.7118 C.3     1  UNL1        0.0000
     87 H          10.0034   11.4225    1.6235 H       1  UNL1        0.0000
     88 H          11.4117   10.8082    0.7399 H       1  UNL1        0.0000
     89 H          11.6199   12.0124    2.0216 H       1  UNL1        0.0000
     90 C          12.2672    6.4064    2.8937 C.3     1  UNL1        0.0000
     91 H          11.5956    5.6141    3.2184 H       1  UNL1        0.0000
     92 H          13.2306    6.2402    3.3763 H       1  UNL1        0.0000
     93 H          12.4050    6.3336    1.8187 H       1  UNL1        0.0000
     94 C          10.6053    9.5198    6.4402 C.3     1  UNL1        0.0000
     95 H          11.2313   10.3172    6.8412 H       1  UNL1        0.0000
     96 H          10.7501    8.6283    7.0442 H       1  UNL1        0.0000
     97 H           9.5659    9.8322    6.5239 H       1  UNL1        0.0000
     98 C           7.4723   12.8654    2.2242 C.3     1  UNL1        0.0000
     99 C           7.3644   13.7765    1.1460 C.2     1  UNL1        0.0000
    100 H           7.8179   13.5194    0.2003 H       1  UNL1        0.0000
    101 C           6.6859   14.9508    1.3395 C.2     1  UNL1        0.0000
    102 H           6.5855   15.6629    0.5312 H       1  UNL1        0.0000
    103 C           6.1260   15.2213    2.5883 C.2     1  UNL1        0.0000
    104 H           5.5868   16.1365    2.7726 H       1  UNL1        0.0000
    105 C           6.2747   14.2935    3.5954 C.2     1  UNL1        0.0000
    106 H           5.8582   14.4760    4.5754 H       1  UNL1        0.0000
    107 C           7.0386    9.8868    7.4877 C.ar    1  UNL1        0.0000
    108 C           6.2541    8.7574    7.2720 C.ar    1  UNL1        0.0000
    109 H           5.5626    8.7504    6.4419 H       1  UNL1        0.0000
    110 C           6.3329    7.6451    8.0887 C.ar    1  UNL1        0.0000
    111 H           5.7076    6.7847    7.8938 H       1  UNL1        0.0000
    112 C           7.2127    7.6327    9.1575 C.ar    1  UNL1        0.0000
    113 H           7.2787    6.7671    9.8011 H       1  UNL1        0.0000
    114 C           8.0043    8.7425    9.3934 C.ar    1  UNL1        0.0000
    115 H           8.6932    8.7470   10.2269 H       1  UNL1        0.0000
    116 C           7.9156    9.8490    8.5667 C.ar    1  UNL1        0.0000
    117 H           8.5431   10.7017    8.7755 H       1  UNL1        0.0000
@<TRIPOS>BOND
     1    53    51    1
     2    38    37    1
     3    49    47    1
     4    48    47    1
     5   100    99    1
     6    47    50    1
     7    47    39    1
     8    51    52    1
     9    51    54    1
    10    51    36    1
    11    37    39   ar
    12    37    36   ar
    13   102   101    1
    14    88    86    1
    15    39    40   ar
    16    36    35   ar
    17    99   101    2
    18    99    98    1
    19    26    24    1
    20    84    83    1
    21   101   103    1
    22    25    24    1
    23    87    86    1
    24    27    24    1
    25    86    89    1
    26    86    85    1
    27    93    90    1
    28    24    23    1
    29     4    98    1
    30     4     1    1
    31    98     5    1
    32    83    85   ar
    33    83    82   ar
    34    40    41    1
    35    40    42   ar
    36    35     7    1
    37    35    42   ar
    38    15    14    1
    39   103   104    1
    40   103   105    2
    41    85    78   ar
    42    90    91    1
    43    90    82    1
    44    90    92    1
    45    22    21    1
    46    14     7    1
    47    14    12    2
    48     7    10    1
    49    42    43    1
    50    72    70    1
    51    73    70    1
    52    23    21   ar
    53    23    16   ar
    54    82    80   ar
    55     5   105    1
    56     5     1    1
    57    12    13    1
    58    12     6    1
    59   105   106    1
    60    10     6    1
    61    10     1    1
    62    21    20   ar
    63    70    71    1
    64    70    56    1
    65     6    16    1
    66    78     9    1
    67    78    79   ar
    68     1     2    1
    69     1    11    1
    70     1     3    1
    71    16    17   ar
    72     9    11    1
    73     9    76    1
    74    43    46    1
    75    43    45    1
    76    43    44    1
    77    80    79   ar
    78    80    81    1
    79    11     8    1
    80    58    57    1
    81    30    28    1
    82    77    76    1
    83    56    57   ar
    84    56    55   ar
    85    76    74    2
    86    20    28    1
    87    20    18   ar
    88    79    94    1
    89    31    28    1
    90     8    74    1
    91     8    55    1
    92    57    59   ar
    93    74    75    1
    94    28    29    1
    95    55    62   ar
    96    17    18   ar
    97    17    32    1
    98    18    19    1
    99    68    66    1
   100     3    32    1
   101     3    63    1
   102     3   107    1
   103    59    66    1
   104    59    60   ar
   105    94    97    1
   106    94    95    1
   107    94    96    1
   108   109   108    1
   109    33    32    1
   110    32    34    1
   111    62    60   ar
   112    62    63    1
   113    66    67    1
   114    66    69    1
   115    60    61    1
   116   108   107   ar
   117   108   110   ar
   118    63    65    1
   119    63    64    1
   120   107   116   ar
   121   111   110    1
   122   110   112   ar
   123   116   117    1
   124   116   114   ar
   125   112   114   ar
   126   112   113    1
   127   114   115    1
