@<TRIPOS>MOLECULE
CSD_code = PAYSUE | q = 0 | S = 0 | Stoichiometry = C43H47ClCoN3 | MND = 4
 95 101 0 0 0
SMALL
GASTEIGER

@<TRIPOS>ATOM
      1 CO          2.1145    5.6844   10.0474 Co.oh   1  UNL1        0.0000
      2 CL          4.1104    5.3911   10.5132 Cl      1  UNL1        0.0000
      3 N           1.5918    3.8874   10.1673 N.pl3   1  UNL1        0.0000
      4 C           2.4554    2.7857   10.3548 C.ar    1  UNL1        0.0000
      5 C           3.1888    2.3091    9.2599 C.ar    1  UNL1        0.0000
      6 C           3.9786    1.1822    9.4304 C.ar    1  UNL1        0.0000
      7 H           4.5283    0.7838    8.5912 H       1  UNL1        0.0000
      8 C           4.0762    0.5617   10.6605 C.ar    1  UNL1        0.0000
      9 H           4.6933   -0.3172   10.7762 H       1  UNL1        0.0000
     10 C           3.4068    1.0860   11.7486 C.ar    1  UNL1        0.0000
     11 H           3.5260    0.6230   12.7157 H       1  UNL1        0.0000
     12 C           2.5848    2.1954   11.6190 C.ar    1  UNL1        0.0000
     13 C           3.1423    3.0047    7.9176 C.3     1  UNL1        0.0000
     14 H           2.5717    3.9393    8.0296 H       1  UNL1        0.0000
     15 C           4.5560    3.3817    7.4729 C.3     1  UNL1        0.0000
     16 H           5.0240    4.0016    8.2332 H       1  UNL1        0.0000
     17 H           4.5168    3.9396    6.5402 H       1  UNL1        0.0000
     18 H           5.1710    2.4997    7.3159 H       1  UNL1        0.0000
     19 C           2.4499    2.1472    6.8561 C.3     1  UNL1        0.0000
     20 H           2.9400    1.1805    6.7620 H       1  UNL1        0.0000
     21 H           2.4894    2.6466    5.8900 H       1  UNL1        0.0000
     22 H           1.4035    1.9812    7.1062 H       1  UNL1        0.0000
     23 C           1.9407    2.8014   12.8445 C.3     1  UNL1        0.0000
     24 H           1.2053    3.5502   12.5349 H       1  UNL1        0.0000
     25 C           3.0201    3.5251   13.6559 C.3     1  UNL1        0.0000
     26 H           3.7716    2.8221   14.0072 H       1  UNL1        0.0000
     27 H           2.5774    4.0226   14.5165 H       1  UNL1        0.0000
     28 H           3.5127    4.2695   13.0347 H       1  UNL1        0.0000
     29 C           1.2180    1.7593   13.6990 C.3     1  UNL1        0.0000
     30 H           0.5347    1.1697   13.0912 H       1  UNL1        0.0000
     31 H           0.6458    2.2542   14.4812 H       1  UNL1        0.0000
     32 H           1.9243    1.0855   14.1767 H       1  UNL1        0.0000
     33 C           0.2893    3.6951   10.1977 C.3     1  UNL1        0.0000
     34 C          -0.3784    2.4145   10.4668 C.ar    1  UNL1        0.0000
     35 C          -0.0113    1.2299    9.8319 C.ar    1  UNL1        0.0000
     36 H           0.7812    1.2339    9.1017 H       1  UNL1        0.0000
     37 C          -0.6628    0.0468   10.1255 C.ar    1  UNL1        0.0000
     38 H          -0.3668   -0.8622    9.6234 H       1  UNL1        0.0000
     39 C          -1.6857    0.0222   11.0587 C.ar    1  UNL1        0.0000
     40 H          -2.1894   -0.9047   11.2887 H       1  UNL1        0.0000
     41 C          -2.0539    1.1926   11.7015 C.ar    1  UNL1        0.0000
     42 H          -2.8427    1.1800   12.4394 H       1  UNL1        0.0000
     43 C          -1.4081    2.3787   11.4092 C.ar    1  UNL1        0.0000
     44 H          -1.6781    3.2808   11.9383 H       1  UNL1        0.0000
     45 C          -0.4557    4.9114   10.0076 C.2     1  UNL1        0.0000
     46 N           0.4007    5.9614    9.9345 N.pl3   1  UNL1        0.0000
     47 C          -1.8264    5.1045    9.8677 C.2     1  UNL1        0.0000
     48 H          -2.4965    4.2598    9.8750 H       1  UNL1        0.0000
     49 C          -2.3077    6.3955    9.6974 C.2     1  UNL1        0.0000
     50 H          -3.3655    6.5628    9.5656 H       1  UNL1        0.0000
     51 C          -1.4323    7.4732    9.7074 C.2     1  UNL1        0.0000
     52 H          -1.7948    8.4817    9.5887 H       1  UNL1        0.0000
     53 C          -0.0694    7.2313    9.8485 C.2     1  UNL1        0.0000
     54 C           1.0339    8.1564    9.8678 C.2     1  UNL1        0.0000
     55 C           0.8215    9.6071    9.9668 C.ar    1  UNL1        0.0000
     56 C           1.5295   10.5357    9.2058 C.ar    1  UNL1        0.0000
     57 H           2.2616   10.2037    8.4890 H       1  UNL1        0.0000
     58 C           1.2924   11.8895    9.3556 C.ar    1  UNL1        0.0000
     59 H           1.8477   12.5950    8.7557 H       1  UNL1        0.0000
     60 C           0.3552   12.3428   10.2684 C.ar    1  UNL1        0.0000
     61 H           0.1763   13.4013   10.3845 H       1  UNL1        0.0000
     62 C          -0.3451   11.4296   11.0393 C.ar    1  UNL1        0.0000
     63 H          -1.0677   11.7740   11.7646 H       1  UNL1        0.0000
     64 C          -0.1158   10.0753   10.8909 C.ar    1  UNL1        0.0000
     65 H          -0.6413    9.3715   11.5196 H       1  UNL1        0.0000
     66 N           2.2013    7.5473    9.8596 N.pl3   1  UNL1        0.0000
     67 C           3.3872    8.3088    9.8202 C.ar    1  UNL1        0.0000
     68 C           4.1281    8.3127    8.6274 C.ar    1  UNL1        0.0000
     69 C           5.2565    9.1141    8.5566 C.ar    1  UNL1        0.0000
     70 H           5.8306    9.1565    7.6451 H       1  UNL1        0.0000
     71 C           5.6666    9.8621    9.6448 C.ar    1  UNL1        0.0000
     72 H           6.5472   10.4832    9.5703 H       1  UNL1        0.0000
     73 C           4.9695    9.7905   10.8339 C.ar    1  UNL1        0.0000
     74 H           5.3247   10.3420   11.6904 H       1  UNL1        0.0000
     75 C           3.8208    9.0207   10.9445 C.ar    1  UNL1        0.0000
     76 C           3.6856    7.4576    7.4601 C.3     1  UNL1        0.0000
     77 H           3.2191    6.5500    7.8817 H       1  UNL1        0.0000
     78 C           4.8527    7.0119    6.5820 C.3     1  UNL1        0.0000
     79 H           5.2602    7.8438    6.0117 H       1  UNL1        0.0000
     80 H           4.5099    6.2621    5.8722 H       1  UNL1        0.0000
     81 H           5.6407    6.5776    7.1913 H       1  UNL1        0.0000
     82 C           2.6357    8.1734    6.6038 C.3     1  UNL1        0.0000
     83 H           1.7253    8.3622    7.1687 H       1  UNL1        0.0000
     84 H           2.3766    7.5582    5.7443 H       1  UNL1        0.0000
     85 H           3.0263    9.1224    6.2388 H       1  UNL1        0.0000
     86 C           3.1282    8.8858   12.2805 C.3     1  UNL1        0.0000
     87 H           2.1787    8.3591   12.1431 H       1  UNL1        0.0000
     88 C           4.0012    8.0287   13.2024 C.3     1  UNL1        0.0000
     89 H           4.2023    7.0685   12.7335 H       1  UNL1        0.0000
     90 H           3.4961    7.8581   14.1510 H       1  UNL1        0.0000
     91 H           4.9517    8.5196   13.3969 H       1  UNL1        0.0000
     92 C           2.8277   10.2433   12.9175 C.3     1  UNL1        0.0000
     93 H           3.7436   10.7452   13.2184 H       1  UNL1        0.0000
     94 H           2.2117   10.1082   13.8043 H       1  UNL1        0.0000
     95 H           2.2946   10.8872   12.2212 H       1  UNL1        0.0000
@<TRIPOS>BOND
     1    84    82    1
     2    80    78    1
     3    21    19    1
     4    79    78    1
     5    85    82    1
     6    17    15    1
     7    78    81    1
     8    78    76    1
     9    82    83    1
    10    82    76    1
    11    20    19    1
    12    19    22    1
    13    19    13    1
    14    18    15    1
    15    76    77    1
    16    76    68    1
    17    15    13    1
    18    15    16    1
    19    70    69    1
    20    13    14    1
    21    13     5    1
    22    57    56    1
    23    69    68   ar
    24    69    71   ar
    25     7     6    1
    26    68    67   ar
    27    59    58    1
    28    36    35    1
    29    56    58   ar
    30    56    55   ar
    31     5     6   ar
    32     5     4   ar
    33    58    60   ar
    34     6     8   ar
    35    50    49    1
    36    72    71    1
    37    52    51    1
    38    38    37    1
    39    71    73   ar
    40    49    51    2
    41    49    47    1
    42    51    53    1
    43    67    66    1
    44    67    75   ar
    45    35    37   ar
    46    35    34   ar
    47    53    54    2
    48    53    46    1
    49    66    54    1
    50    66     1    1
    51    47    48    1
    52    47    45    2
    53    54    55    1
    54    46    45    1
    55    46     1    1
    56    55    64   ar
    57    45    33    1
    58     1     3    1
    59     1     2    1
    60    37    39   ar
    61     3    33    1
    62     3     4    1
    63    33    34    1
    64    60    61    1
    65    60    62   ar
    66     4    12   ar
    67    34    43   ar
    68     8     9    1
    69     8    10   ar
    70    73    75   ar
    71    73    74    1
    72    64    62   ar
    73    64    65    1
    74    75    86    1
    75    62    63    1
    76    39    40    1
    77    39    41   ar
    78    43    41   ar
    79    43    44    1
    80    12    10   ar
    81    12    23    1
    82    41    42    1
    83    10    11    1
    84    87    86    1
    85    95    92    1
    86    86    92    1
    87    86    88    1
    88    24    23    1
    89    89    88    1
    90    23    25    1
    91    23    29    1
    92    92    93    1
    93    92    94    1
    94    28    25    1
    95    30    29    1
    96    88    91    1
    97    88    90    1
    98    25    26    1
    99    25    27    1
   100    29    32    1
   101    29    31    1
