@<TRIPOS>MOLECULE
CSD_code = PAZBUQ | q = 1 | S = 0 | Stoichiometry = C20H12CoN10O4(1+) | MND = 6
 47 54 0 0 0
SMALL
GASTEIGER

@<TRIPOS>ATOM
      1 CO          8.6244    9.5570   12.1690 Co.oh   1  UNL1        0.0000
      2 N           7.4577    9.6722   13.6455 N.pl3   1  UNL1        0.0000
      3 N           7.4509    8.3534   11.3162 N.pl3   1  UNL1        0.0000
      4 N           9.4920    8.2500   13.1427 N.am    1  UNL1        0.0000
      5 N           7.7566   10.8644   11.1961 N.am    1  UNL1        0.0000
      6 N           9.6578   10.9715   12.8655 N.pl3   1  UNL1        0.0000
      7 N           9.9307    9.2314   10.8500 N.pl3   1  UNL1        0.0000
      8 O           7.7277   13.1514   10.8351 O.2     1  UNL1        0.0000
      9 C           8.1577   12.1650   11.3610 C.2     1  UNL1        0.0000
     10 O          11.2847    6.7880   13.0400 O.2     1  UNL1        0.0000
     11 C          10.8032    8.2716   11.2156 C.3     1  UNL1        0.0000
     12 C          10.5892    7.6486   12.5820 C.2     1  UNL1        0.0000
     13 C           9.2924   12.1693   12.3675 C.3     1  UNL1        0.0000
     14 N           9.8475   13.3099   12.6953 N.2     1  UNL1        0.0000
     15 O           6.0649   11.1604    9.6429 O.2     1  UNL1        0.0000
     16 C          10.6571   10.9567   13.7514 C.2     1  UNL1        0.0000
     17 H          10.9597    9.9999   14.1569 H       1  UNL1        0.0000
     18 C          10.1054    9.7918    9.6504 C.2     1  UNL1        0.0000
     19 H           9.4105   10.5641    9.3467 H       1  UNL1        0.0000
     20 C           6.7453   10.4785   10.3544 C.2     1  UNL1        0.0000
     21 N           7.1457    8.7055   15.7671 N.2     1  UNL1        0.0000
     22 C           6.6087    8.9718   10.4652 C.3     1  UNL1        0.0000
     23 C           9.0035    7.9397   14.3857 C.2     1  UNL1        0.0000
     24 O           9.4170    7.1357   15.1710 O.2     1  UNL1        0.0000
     25 C          11.9860    8.4004    9.2879 C.2     1  UNL1        0.0000
     26 H          12.8222    8.0241    8.7150 H       1  UNL1        0.0000
     27 N           5.7000    8.3611    9.7455 N.2     1  UNL1        0.0000
     28 C           7.7918    8.8180   14.6329 C.3     1  UNL1        0.0000
     29 C           7.3426    7.0270   11.4278 C.2     1  UNL1        0.0000
     30 H           8.0138    6.5201   12.1091 H       1  UNL1        0.0000
     31 C          11.1410    9.4005    8.8175 C.2     1  UNL1        0.0000
     32 H          11.2738    9.8583    7.8513 H       1  UNL1        0.0000
     33 C           6.3923   10.4521   13.8462 C.2     1  UNL1        0.0000
     34 H           6.1146   11.1417   13.0595 H       1  UNL1        0.0000
     35 C           6.0913    9.4711   15.9794 C.2     1  UNL1        0.0000
     36 H           5.5918    9.3426   16.9298 H       1  UNL1        0.0000
     37 N          11.8019    7.8558   10.4764 N.2     1  UNL1        0.0000
     38 C           6.4034    6.3179   10.6970 C.2     1  UNL1        0.0000
     39 H           6.3235    5.2478   10.7936 H       1  UNL1        0.0000
     40 C           5.5826    7.0499    9.8449 C.2     1  UNL1        0.0000
     41 H           4.8197    6.5912    9.2311 H       1  UNL1        0.0000
     42 C           5.6629   10.3850   15.0220 C.2     1  UNL1        0.0000
     43 H           4.8048   11.0184   15.1748 H       1  UNL1        0.0000
     44 C          10.8354   13.3103   13.5712 C.2     1  UNL1        0.0000
     45 H          11.2601   14.2753   13.8109 H       1  UNL1        0.0000
     46 C          11.2893   12.1257   14.1423 C.2     1  UNL1        0.0000
     47 H          12.0945   12.1037   14.8579 H       1  UNL1        0.0000
@<TRIPOS>BOND
     1    32    31    1
     2    26    25    1
     3    31    25    1
     4    31    18    2
     5    41    40    1
     6    25    37    2
     7    19    18    1
     8    15    20    2
     9    18     7    1
    10    27    40    2
    11    27    22    1
    12    40    38    1
    13    20    22    1
    14    20     5   am
    15    22     3    1
    16    37    11    1
    17    38    39    1
    18    38    29    2
    19     8     9    2
    20     7    11    1
    21     7     1    1
    22     5     9   am
    23     5     1    1
    24    11    12    1
    25     3    29    1
    26     3     1    1
    27     9    13    1
    28    29    30    1
    29     1     6    1
    30     1     4    1
    31     1     2    1
    32    13    14    1
    33    13     6    1
    34    12    10    2
    35    12     4   am
    36    14    44    2
    37     6    16    1
    38    34    33    1
    39     4    23   am
    40    44    45    1
    41    44    46    1
    42     2    33    1
    43     2    28    1
    44    16    46    2
    45    16    17    1
    46    33    42    2
    47    46    47    1
    48    23    28    1
    49    23    24    2
    50    28    21    1
    51    42    43    1
    52    42    35    1
    53    21    35    2
    54    35    36    1
