@<TRIPOS>MOLECULE
CSD_code = PESFUP | q = 1 | S = 0 | Stoichiometry = C24H30Cl4CoN4O2(1+) | MND = 6
 65 70 0 0 0
SMALL
GASTEIGER

@<TRIPOS>ATOM
      1 CO          1.8380    3.0729   13.1175 Co.oh   1  UNL1        0.0000
      2 CL         -0.9422    2.8152    9.5256 Cl      1  UNL1        0.0000
      3 CL         -2.3190   -2.2060   10.8696 Cl      1  UNL1        0.0000
      4 CL         -2.0786    1.2330   14.5456 Cl      1  UNL1        0.0000
      5 CL         -4.8813    5.1692   12.1855 Cl      1  UNL1        0.0000
      6 O           1.0856    2.4829   11.5238 O.3     1  UNL1        0.0000
      7 O           0.1852    2.8872   13.9420 O.3     1  UNL1        0.0000
      8 N           2.1098    1.3021   13.7330 N.3     1  UNL1        0.0000
      9 N           2.7099    3.6222   14.9095 N.4     1  UNL1        0.0000
     10 H           3.7066    3.6443   14.6819 H       1  UNL1        0.0000
     11 N           1.4362    4.8136   12.5124 N.3     1  UNL1        0.0000
     12 N           3.6212    3.3844   12.0333 N.4     1  UNL1        0.0000
     13 H           3.2505    3.2026   11.0960 H       1  UNL1        0.0000
     14 C           0.4818    0.2877   12.2708 C.ar    1  UNL1        0.0000
     15 C           0.3351    1.4370   11.4451 C.ar    1  UNL1        0.0000
     16 C          -0.6995    1.3997   10.4742 C.ar    1  UNL1        0.0000
     17 C          -1.4980    0.2973   10.2965 C.ar    1  UNL1        0.0000
     18 H          -2.2789    0.3075    9.5527 H       1  UNL1        0.0000
     19 C          -1.3067   -0.8325   11.0995 C.ar    1  UNL1        0.0000
     20 C          -0.3376   -0.8372   12.0737 C.ar    1  UNL1        0.0000
     21 H          -0.2165   -1.7001   12.7093 H       1  UNL1        0.0000
     22 C           1.3973    0.2966   13.3615 C.3     1  UNL1        0.0000
     23 H           1.4698   -0.6334   13.9260 H       1  UNL1        0.0000
     24 C           2.8864    1.2166   14.9494 C.3     1  UNL1        0.0000
     25 H           3.9542    1.2210   14.7005 H       1  UNL1        0.0000
     26 H           2.6656    0.2999   15.5052 H       1  UNL1        0.0000
     27 C           2.5327    2.4488   15.7779 C.3     1  UNL1        0.0000
     28 H           1.4837    2.3879   16.0677 H       1  UNL1        0.0000
     29 H           3.1618    2.5019   16.6715 H       1  UNL1        0.0000
     30 C           2.4421    4.9242   15.5760 C.3     1  UNL1        0.0000
     31 H           2.4332    5.6732   14.7767 H       1  UNL1        0.0000
     32 C           1.0892    4.9578   16.2735 C.3     1  UNL1        0.0000
     33 H           0.3137    4.5610   15.6268 H       1  UNL1        0.0000
     34 H           0.8371    5.9859   16.5176 H       1  UNL1        0.0000
     35 H           1.1060    4.3895   17.1992 H       1  UNL1        0.0000
     36 C           3.5655    5.2805   16.5505 C.3     1  UNL1        0.0000
     37 H           3.5842    4.6035   17.4004 H       1  UNL1        0.0000
     38 H           3.4070    6.2842   16.9341 H       1  UNL1        0.0000
     39 H           4.5395    5.2591   16.0631 H       1  UNL1        0.0000
     40 C          -0.9584    4.6353   12.7764 C.ar    1  UNL1        0.0000
     41 C          -0.9028    3.4068   13.4903 C.ar    1  UNL1        0.0000
     42 C          -2.1382    2.7518   13.7384 C.ar    1  UNL1        0.0000
     43 C          -3.3394    3.2866   13.3460 C.ar    1  UNL1        0.0000
     44 H          -4.2584    2.7580   13.5438 H       1  UNL1        0.0000
     45 C          -3.3658    4.5141   12.6734 C.ar    1  UNL1        0.0000
     46 C          -2.1969    5.1781   12.3909 C.ar    1  UNL1        0.0000
     47 H          -2.2227    6.1098   11.8484 H       1  UNL1        0.0000
     48 C           0.2427    5.2828   12.3783 C.3     1  UNL1        0.0000
     49 H           0.1167    6.2457   11.8830 H       1  UNL1        0.0000
     50 C           2.5150    5.5455   11.8713 C.3     1  UNL1        0.0000
     51 H           2.5618    6.5779   12.2352 H       1  UNL1        0.0000
     52 H           2.3170    5.5776   10.7933 H       1  UNL1        0.0000
     53 C           3.8427    4.8360   12.1154 C.3     1  UNL1        0.0000
     54 H           4.5611    5.1811   11.3658 H       1  UNL1        0.0000
     55 H           4.2407    5.0843   13.1028 H       1  UNL1        0.0000
     56 C           4.8589    2.5736   12.1382 C.3     1  UNL1        0.0000
     57 H           5.1319    2.5156   13.1995 H       1  UNL1        0.0000
     58 C           4.5781    1.1758   11.5954 C.3     1  UNL1        0.0000
     59 H           3.6639    0.7639   12.0096 H       1  UNL1        0.0000
     60 H           5.3997    0.5069   11.8350 H       1  UNL1        0.0000
     61 H           4.4754    1.2108   10.5132 H       1  UNL1        0.0000
     62 C           6.0458    3.1651   11.3734 C.3     1  UNL1        0.0000
     63 H           6.8525    2.4373   11.3655 H       1  UNL1        0.0000
     64 H           6.4287    4.0712   11.8349 H       1  UNL1        0.0000
     65 H           5.7773    3.3726   10.3400 H       1  UNL1        0.0000
@<TRIPOS>BOND
     1     2    16    1
     2    18    17    1
     3    17    16   ar
     4    17    19   ar
     5    65    62    1
     6    16    15   ar
     7    61    58    1
     8    52    50    1
     9     3    19    1
    10    13    12    1
    11    19    20   ar
    12    63    62    1
    13    54    53    1
    14    62    64    1
    15    62    56    1
    16    15     6    1
    17    15    14   ar
    18     6     1    1
    19    58    60    1
    20    58    59    1
    21    58    56    1
    22    47    46    1
    23    50    53    1
    24    50    51    1
    25    50    11    1
    26    49    48    1
    27    12    53    1
    28    12    56    1
    29    12     1    1
    30    20    14   ar
    31    20    21    1
    32    53    55    1
    33    56    57    1
    34     5    45    1
    35    14    22    1
    36    48    11    1
    37    48    40    1
    38    46    45   ar
    39    46    40   ar
    40    11     1    1
    41    45    43   ar
    42    40    41   ar
    43     1     8    1
    44     1     7    1
    45     1     9    1
    46    43    44    1
    47    43    42   ar
    48    22     8    1
    49    22    23    1
    50    41    42   ar
    51    41     7    1
    52     8    24    1
    53    42     4    1
    54    10     9    1
    55    25    24    1
    56    31    30    1
    57     9    30    1
    58     9    27    1
    59    24    26    1
    60    24    27    1
    61    30    32    1
    62    30    36    1
    63    33    32    1
    64    27    28    1
    65    27    29    1
    66    39    36    1
    67    32    34    1
    68    32    35    1
    69    36    38    1
    70    36    37    1
