@<TRIPOS>MOLECULE
CSD_code = PINYAM | q = 0 | S = 0 | Stoichiometry = C8H11Cl2CoO8 | MND = 6
 30 30 0 0 0
SMALL
GASTEIGER

@<TRIPOS>ATOM
      1 CO          2.4135    1.4447    0.9802 Co.oh   1  UNL1        0.0000
      2 CL          7.6506   -0.5165    2.0093 Cl      1  UNL1        0.0000
      3 CL          5.0262   -0.4011    5.0567 Cl      1  UNL1        0.0000
      4 O           3.4604    1.3688   -0.5186 O.3     1  UNL1        0.0000
      5 O           4.8630    0.3555   -1.8755 O.2     1  UNL1        0.0000
      6 O           1.8483   -0.2788    0.7291 O.3     1  UNL1        0.0000
      7 O           2.1822   -2.3846    0.1867 O.2     1  UNL1        0.0000
      8 O           3.9910    0.8330    2.2207 O.3     1  UNL1        0.0000
      9 O           2.9809    3.4256    1.1256 O.3     2  HOH2        0.0000
     10 O           1.0216    2.1138    0.0601 O.3     1  UNL1        0.0000
     11 O           1.0921    1.5336    2.5645 O.3     3  HOH3        0.0000
     12 C           4.3832    0.5072   -0.7785 C.2     1  UNL1        0.0000
     13 C           2.5875   -1.3258    0.6010 C.2     1  UNL1        0.0000
     14 C           4.0327   -1.2239    1.1696 C.3     1  UNL1        0.0000
     15 C           4.9852   -0.2487    0.4396 C.3     1  UNL1        0.0000
     16 C           5.2473    0.7880    1.5441 C.3     1  UNL1        0.0000
     17 C           6.1716    0.2235    2.6418 C.3     1  UNL1        0.0000
     18 C           5.2375   -0.7838    3.3287 C.3     1  UNL1        0.0000
     19 C           3.9345   -0.5568    2.5530 C.3     1  UNL1        0.0000
     20 H           4.4335   -2.2372    1.2046 H       1  UNL1        0.0000
     21 H           5.8905   -0.7448    0.0901 H       1  UNL1        0.0000
     22 H           5.5338    1.7780    1.1921 H       1  UNL1        0.0000
     23 H           6.4780    1.0131    3.3310 H       1  UNL1        0.0000
     24 H           5.5947   -1.8112    3.2709 H       1  UNL1        0.0000
     25 H           3.0323   -0.7807    3.1202 H       1  UNL1        0.0000
     26 H           2.1566    3.9074    0.9651 H       0  HOH0        0.0000
     27 H           3.5058    3.5594    0.3233 H       0  HOH0        0.0000
     28 H           0.8698    1.6327   -0.7573 H       1  UNL1        0.0000
     29 H           0.3800    2.0635    2.1728 H       0  HOH0        0.0000
     30 H           0.7225    0.6431    2.6394 H       0  HOH0        0.0000
@<TRIPOS>BOND
     1     5    12    2
     2    12     4    1
     3    12    15    1
     4    28    10    1
     5     4     1    1
     6    10     1    1
     7    21    15    1
     8     7    13    2
     9    27     9    1
    10    15    14    1
    11    15    16    1
    12    13     6    1
    13    13    14    1
    14     6     1    1
    15    26     9    1
    16    14    20    1
    17    14    19    1
    18    22    16    1
    19    16     8    1
    20    16    17    1
    21     2    17    1
    22    29    11    1
    23     8    19    1
    24    19    25    1
    25    19    18    1
    26    11    30    1
    27    17    18    1
    28    17    23    1
    29    24    18    1
    30    18     3    1
