@<TRIPOS>MOLECULE
CSD_code = PODWAJ | q = 0 | S = 0 | Stoichiometry = C36H37CoN8O4 | MND = 6
 86 95 0 0 0
SMALL
GASTEIGER

@<TRIPOS>ATOM
      1 CO         -1.6865   -2.7902    3.1860 Co.oh   1  UNL1        0.0000
      2 O          -0.2776   -3.6685    3.9999 O.3     1  UNL1        0.0000
      3 O          -7.0077   -0.5987    1.4996 O.3     1  UNL1        0.0000
      4 O          -2.9448   -3.6894    4.2733 O.3     1  UNL1        0.0000
      5 O           3.2723   -0.9457    0.2651 O.3     1  UNL1        0.0000
      6 N          -1.7606   -1.4164    4.4682 N.3     1  UNL1        0.0000
      7 N          -2.7952   -0.5738    4.1952 N.pl3   1  UNL1        0.0000
      8 N          -4.5770   -0.0252    2.9866 N.pl3   1  UNL1        0.0000
      9 H          -5.3690   -0.1060    2.3557 H       1  UNL1        0.0000
     10 N          -3.1758   -1.8883    2.3377 N.3     1  UNL1        0.0000
     11 N          -1.6304   -4.1448    1.8946 N.pl3   1  UNL1        0.0000
     12 N          -0.7543   -3.8217    0.9255 N.ar    1  UNL1        0.0000
     13 N           0.8282   -2.4139    0.1441 N.ar    1  UNL1        0.0000
     14 N          -0.4553   -1.8448    2.0860 N.pl3   1  UNL1        0.0000
     15 C           0.3384   -3.3273    5.0702 C.ar    1  UNL1        0.0000
     16 C           1.4321   -4.1287    5.4950 C.ar    1  UNL1        0.0000
     17 H           1.6860   -4.9766    4.8776 H       1  UNL1        0.0000
     18 C           2.1353   -3.8430    6.6311 C.ar    1  UNL1        0.0000
     19 H           2.9637   -4.4727    6.9214 H       1  UNL1        0.0000
     20 C           1.7951   -2.7417    7.4278 C.ar    1  UNL1        0.0000
     21 H           2.3571   -2.5289    8.3239 H       1  UNL1        0.0000
     22 C           0.7481   -1.9453    7.0557 C.ar    1  UNL1        0.0000
     23 H           0.4763   -1.0906    7.6605 H       1  UNL1        0.0000
     24 C           0.0048   -2.1995    5.8844 C.ar    1  UNL1        0.0000
     25 C          -1.0639   -1.3321    5.5570 C.3     1  UNL1        0.0000
     26 H          -1.2919   -0.5588    6.2825 H       1  UNL1        0.0000
     27 C          -3.3445    0.5581    4.7915 C.ar    1  UNL1        0.0000
     28 C          -2.9982    1.3620    5.8660 C.ar    1  UNL1        0.0000
     29 H          -2.1209    1.1911    6.4660 H       1  UNL1        0.0000
     30 C          -3.8142    2.4445    6.1625 C.ar    1  UNL1        0.0000
     31 H          -3.5540    3.0753    6.9981 H       1  UNL1        0.0000
     32 C          -4.9456    2.7365    5.4157 C.ar    1  UNL1        0.0000
     33 H          -5.5556    3.5854    5.6811 H       1  UNL1        0.0000
     34 C          -5.2942    1.9569    4.3242 C.ar    1  UNL1        0.0000
     35 H          -6.1608    2.1779    3.7220 H       1  UNL1        0.0000
     36 C          -4.4842    0.8815    4.0227 C.ar    1  UNL1        0.0000
     37 C          -3.5423   -0.9030    3.0927 C.3     1  UNL1        0.0000
     38 C          -3.9878   -2.1817    1.1750 C.3     1  UNL1        0.0000
     39 H          -3.4021   -2.7968    0.4912 H       1  UNL1        0.0000
     40 H          -4.2169   -1.2405    0.6624 H       1  UNL1        0.0000
     41 C          -5.2830   -2.9106    1.5630 C.3     1  UNL1        0.0000
     42 H          -5.0663   -3.9674    1.7237 H       1  UNL1        0.0000
     43 H          -5.6349   -2.5127    2.5178 H       1  UNL1        0.0000
     44 C          -6.3934   -2.7739    0.5197 C.3     1  UNL1        0.0000
     45 H          -6.0638   -3.1799   -0.4368 H       1  UNL1        0.0000
     46 H          -7.2504   -3.3631    0.8558 H       1  UNL1        0.0000
     47 C          -6.8385   -1.3228    0.2952 C.3     1  UNL1        0.0000
     48 H          -6.0887   -0.7670   -0.2710 H       1  UNL1        0.0000
     49 H          -7.7705   -1.3118   -0.2838 H       1  UNL1        0.0000
     50 C          -3.4578   -4.8542    4.0673 C.ar    1  UNL1        0.0000
     51 C          -4.3927   -5.3506    5.0074 C.ar    1  UNL1        0.0000
     52 H          -4.6109   -4.7271    5.8618 H       1  UNL1        0.0000
     53 C          -4.9967   -6.5709    4.8515 C.ar    1  UNL1        0.0000
     54 H          -5.7060   -6.9157    5.5905 H       1  UNL1        0.0000
     55 C          -4.7014   -7.3746    3.7490 C.ar    1  UNL1        0.0000
     56 H          -5.1782   -8.3359    3.6341 H       1  UNL1        0.0000
     57 C          -3.7947   -6.9302    2.8207 C.ar    1  UNL1        0.0000
     58 H          -3.5540   -7.5466    1.9650 H       1  UNL1        0.0000
     59 C          -3.1627   -5.6813    2.9431 C.ar    1  UNL1        0.0000
     60 C          -2.2294   -5.2903    1.9404 C.3     1  UNL1        0.0000
     61 H          -2.0206   -6.0252    1.1703 H       1  UNL1        0.0000
     62 C          -0.2401   -4.4243   -0.2165 C.ar    1  UNL1        0.0000
     63 C          -0.5071   -5.5829   -0.9208 C.ar    1  UNL1        0.0000
     64 H          -1.2661   -6.2909   -0.6244 H       1  UNL1        0.0000
     65 C           0.2370   -5.8337   -2.0651 C.ar    1  UNL1        0.0000
     66 H           0.0435   -6.7368   -2.6248 H       1  UNL1        0.0000
     67 C           1.2187   -4.9536   -2.5010 C.ar    1  UNL1        0.0000
     68 H           1.7792   -5.1893   -3.3937 H       1  UNL1        0.0000
     69 C           1.4857   -3.7819   -1.8171 C.ar    1  UNL1        0.0000
     70 H           2.2420   -3.0882   -2.1467 H       1  UNL1        0.0000
     71 C           0.7492   -3.5108   -0.6746 C.ar    1  UNL1        0.0000
     72 C          -0.0745   -2.6118    1.0816 C.ar    1  UNL1        0.0000
     73 C           0.3161   -0.6313    2.2513 C.3     1  UNL1        0.0000
     74 H          -0.2208    0.0503    2.9162 H       1  UNL1        0.0000
     75 H           0.3890   -0.1600    1.2647 H       1  UNL1        0.0000
     76 C           1.7277   -0.9070    2.7887 C.3     1  UNL1        0.0000
     77 H           1.6934   -1.0058    3.8763 H       1  UNL1        0.0000
     78 H           2.0645   -1.8626    2.3845 H       1  UNL1        0.0000
     79 C           2.7450    0.1664    2.4043 C.3     1  UNL1        0.0000
     80 H           2.4240    1.1440    2.7717 H       1  UNL1        0.0000
     81 H           3.6931   -0.0831    2.8842 H       1  UNL1        0.0000
     82 C           2.9828    0.2724    0.8857 C.3     1  UNL1        0.0000
     83 H           2.1179    0.7556    0.4071 H       1  UNL1        0.0000
     84 H           3.8536    0.9158    0.7169 H       1  UNL1        0.0000
     85 H          -7.6808   -1.0401    2.0304 H       1  UNL1        0.0000
     86 H           2.4513   -1.4805    0.2177 H       1  UNL1        0.0000
@<TRIPOS>BOND
     1    68    67    1
     2    66    65    1
     3    67    65   ar
     4    67    69   ar
     5    70    69    1
     6    65    63   ar
     7    69    71   ar
     8    63    64    1
     9    63    62   ar
    10    71    62   ar
    11    71    13   ar
    12    45    44    1
    13    49    47    1
    14    48    47    1
    15    62    12   ar
    16    13    72   ar
    17    86     5    1
    18     5    82    1
    19    47    44    1
    20    47     3    1
    21    83    82    1
    22    39    38    1
    23    44    46    1
    24    44    41    1
    25    40    38    1
    26    84    82    1
    27    82    79    1
    28    12    72   ar
    29    12    11    1
    30    72    14    1
    31    61    60    1
    32    38    41    1
    33    38    10    1
    34    75    73    1
    35     3    85    1
    36    41    42    1
    37    41    43    1
    38    11    60    1
    39    11     1    1
    40    60    59    1
    41    58    57    1
    42    14    73    1
    43    14     1    1
    44    73    76    1
    45    73    74    1
    46    10    37    1
    47    10     1    1
    48     9     8    1
    49    78    76    1
    50    79    80    1
    51    79    76    1
    52    79    81    1
    53    76    77    1
    54    57    59   ar
    55    57    55   ar
    56    59    50   ar
    57     8    37    1
    58     8    36    1
    59    37     7    1
    60     1     2    1
    61     1     4    1
    62     1     6    1
    63    56    55    1
    64    35    34    1
    65    55    53   ar
    66     2    15    1
    67    36    34   ar
    68    36    27   ar
    69    50     4    1
    70    50    51   ar
    71     7     6    1
    72     7    27    1
    73    34    32   ar
    74     6    25    1
    75    27    28   ar
    76    53    51   ar
    77    53    54    1
    78    17    16    1
    79    51    52    1
    80    15    16   ar
    81    15    24   ar
    82    32    33    1
    83    32    30   ar
    84    16    18   ar
    85    25    24    1
    86    25    26    1
    87    28    30   ar
    88    28    29    1
    89    24    22   ar
    90    30    31    1
    91    18    19    1
    92    18    20   ar
    93    22    20   ar
    94    22    23    1
    95    20    21    1
