@<TRIPOS>MOLECULE
CSD_code = QAXFAX | q = -1 | S = 0 | Stoichiometry = C14H18CoN2O12(1-) | MND = 6
 47 50 0 0 0
SMALL
GASTEIGER

@<TRIPOS>ATOM
      1 CO          1.6998    7.5218    5.5465 Co.oh   1  UNL1        0.0000
      2 N          -0.0424    6.5845    5.6658 N.4     1  UNL1        0.0000
      3 O           0.7757    9.0900    5.9956 O.3     1  UNL1        0.0000
      4 O          -1.2300    9.8613    6.5482 O.2     1  UNL1        0.0000
      5 O           1.8960    7.1950    7.3818 O.3     1  UNL1        0.0000
      6 O           0.8570    6.3303    9.1416 O.2     1  UNL1        0.0000
      7 O          -0.7060    2.9300    3.6364 O.3     1  UNL1        0.0000
      8 H          -0.7125    2.3259    2.8783 H       1  UNL1        0.0000
      9 O          -2.4041    3.8983    2.5690 O.2     1  UNL1        0.0000
     10 C          -0.4852    8.9950    6.1345 C.2     1  UNL1        0.0000
     11 C          -1.0671    7.6406    5.6426 C.3     1  UNL1        0.0000
     12 H          -1.9499    7.3757    6.2329 H       1  UNL1        0.0000
     13 H          -1.3670    7.8251    4.6080 H       1  UNL1        0.0000
     14 C           0.9726    6.5295    7.9487 C.2     1  UNL1        0.0000
     15 C          -0.0295    5.8762    6.9556 C.3     1  UNL1        0.0000
     16 H           0.3510    4.8628    6.8043 H       1  UNL1        0.0000
     17 H          -1.0230    5.8270    7.4125 H       1  UNL1        0.0000
     18 C          -1.6326    3.8835    3.4909 C.2     1  UNL1        0.0000
     19 C          -1.5788    4.8884    4.6109 C.3     1  UNL1        0.0000
     20 H          -1.6574    4.3461    5.5545 H       1  UNL1        0.0000
     21 H          -2.4229    5.5693    4.5045 H       1  UNL1        0.0000
     22 C          -0.2374    5.6420    4.5541 C.3     1  UNL1        0.0000
     23 H           0.5867    4.9266    4.5744 H       1  UNL1        0.0000
     24 H          -0.1643    6.2059    3.6225 H       1  UNL1        0.0000
     25 N           3.4422    8.4585    5.4276 N.4     1  UNL1        0.0000
     26 O           2.6239    5.9534    5.0973 O.3     1  UNL1        0.0000
     27 O           4.6311    5.1821    4.5493 O.2     1  UNL1        0.0000
     28 O           1.5035    7.8487    3.7115 O.3     1  UNL1        0.0000
     29 O           2.5441    8.7087    1.9503 O.2     1  UNL1        0.0000
     30 O           4.1024   12.1243    7.4328 O.3     1  UNL1        0.0000
     31 H           4.1050   12.7353    8.1853 H       1  UNL1        0.0000
     32 O           5.7918   11.1628    8.5201 O.2     1  UNL1        0.0000
     33 C           3.8853    6.0481    4.9620 C.2     1  UNL1        0.0000
     34 C           4.4658    7.4016    5.4579 C.3     1  UNL1        0.0000
     35 H           5.3530    7.6657    4.8740 H       1  UNL1        0.0000
     36 H           4.7579    7.2169    6.4947 H       1  UNL1        0.0000
     37 C           2.4286    8.5109    3.1435 C.2     1  UNL1        0.0000
     38 C           3.4338    9.1619    4.1350 C.3     1  UNL1        0.0000
     39 H           3.0593   10.1783    4.2820 H       1  UNL1        0.0000
     40 H           4.4277    9.2033    3.6783 H       1  UNL1        0.0000
     41 C           5.0264   11.1705    7.5931 C.2     1  UNL1        0.0000
     42 C           4.9780   10.1555    6.4819 C.3     1  UNL1        0.0000
     43 H           5.0639   10.6892    5.5340 H       1  UNL1        0.0000
     44 H           5.8201    9.4740    6.6000 H       1  UNL1        0.0000
     45 C           3.6349    9.4049    6.5365 C.3     1  UNL1        0.0000
     46 H           2.8123   10.1219    6.5100 H       1  UNL1        0.0000
     47 H           3.5569    8.8448    7.4700 H       1  UNL1        0.0000
@<TRIPOS>BOND
     1    29    37    2
     2     9    18    2
     3     8     7    1
     4    37    28    1
     5    37    38    1
     6    18     7    1
     7    18    19    1
     8    24    22    1
     9    40    38    1
    10    28     1    1
    11    38    39    1
    12    38    25    1
    13    21    19    1
    14    27    33    2
    15    22    23    1
    16    22    19    1
    17    22     2    1
    18    13    11    1
    19    19    20    1
    20    35    34    1
    21    33    26    1
    22    33    34    1
    23    26     1    1
    24    25    34    1
    25    25     1    1
    26    25    45    1
    27    34    36    1
    28    43    42    1
    29     1     2    1
    30     1     3    1
    31     1     5    1
    32    11     2    1
    33    11    10    1
    34    11    12    1
    35     2    15    1
    36     3    10    1
    37    10     4    2
    38    42    45    1
    39    42    44    1
    40    42    41    1
    41    46    45    1
    42    45    47    1
    43    16    15    1
    44    15    17    1
    45    15    14    1
    46     5    14    1
    47    30    41    1
    48    30    31    1
    49    41    32    2
    50    14     6    2
