@<TRIPOS>MOLECULE
CSD_code = QAZCID | q = 0 | S = 0 | Stoichiometry = C31H25BCoN9S | MND = 5
 68 76 0 0 0
SMALL
GASTEIGER

@<TRIPOS>ATOM
      1 CO          7.7979   11.9404   12.0506 Co.oh   1  UNL1        0.0000
      2 S           7.3824   12.7015    7.5889 S.2     1  UNL1        0.0000
      3 N           7.6530   12.2848   10.2951 N.2     1  UNL1        0.0000
      4 N           6.5813   10.5672   11.9222 N.ar    1  UNL1        0.0000
      5 N           6.5904    9.6949   12.9218 N.ar    1  UNL1        0.0000
      6 N           9.0649   13.4630   12.2802 N.pl3   1  UNL1        0.0000
      7 N          10.0834   13.2827   13.1343 N.3     1  UNL1        0.0000
      8 N           9.2199   10.7043   12.1330 N.pl3   1  UNL1        0.0000
      9 N          10.1539   10.8411   13.0815 N.3     1  UNL1        0.0000
     10 N           7.6653   11.9736   13.9429 N.pl3   1  UNL1        0.0000
     11 N           8.7519   11.9780   14.7133 N.3     1  UNL1        0.0000
     12 C           7.5524   12.4278    9.1294 C.1     1  UNL1        0.0000
     13 C           5.5731   10.2959   11.0735 C.ar    1  UNL1        0.0000
     14 H           5.3961   10.8733   10.1874 H       1  UNL1        0.0000
     15 C           4.8884    9.2037   11.5659 C.ar    1  UNL1        0.0000
     16 H           4.0277    8.7269   11.1423 H       1  UNL1        0.0000
     17 C           5.5771    8.8662   12.7331 C.ar    1  UNL1        0.0000
     18 H           5.3838    8.0715   13.4281 H       1  UNL1        0.0000
     19 C          10.9531   14.2928   13.0263 C.3     1  UNL1        0.0000
     20 H          11.8360   14.3313   13.6318 H       1  UNL1        0.0000
     21 C          10.4894   15.1637   12.0657 C.2     1  UNL1        0.0000
     22 H          10.9317   16.0810   11.7365 H       1  UNL1        0.0000
     23 C           9.2841   14.6048   11.6212 C.2     1  UNL1        0.0000
     24 C           8.3663   15.1736   10.6362 C.ar    1  UNL1        0.0000
     25 C           7.0222   15.3564   10.9460 C.ar    1  UNL1        0.0000
     26 H           6.6643   15.0987   11.9332 H       1  UNL1        0.0000
     27 C           6.1587   15.8966   10.0120 C.ar    1  UNL1        0.0000
     28 H           5.1149   16.0288   10.2582 H       1  UNL1        0.0000
     29 C           6.6306   16.2709    8.7652 C.ar    1  UNL1        0.0000
     30 H           5.9540   16.6843    8.0324 H       1  UNL1        0.0000
     31 C           7.9719   16.1137    8.4590 C.ar    1  UNL1        0.0000
     32 H           8.3418   16.4043    7.4873 H       1  UNL1        0.0000
     33 C           8.8383   15.5709    9.3892 C.ar    1  UNL1        0.0000
     34 H           9.8812   15.4299    9.1459 H       1  UNL1        0.0000
     35 C          10.9829    9.7942   13.0490 C.3     1  UNL1        0.0000
     36 H          11.8078    9.7188   13.7283 H       1  UNL1        0.0000
     37 C          10.5682    8.9444   12.0479 C.2     1  UNL1        0.0000
     38 H          11.0046    8.0155   11.7445 H       1  UNL1        0.0000
     39 C           9.4423    9.5572   11.4867 C.2     1  UNL1        0.0000
     40 C           8.6352    9.0266   10.3824 C.ar    1  UNL1        0.0000
     41 C           7.8700    7.8832   10.5869 C.ar    1  UNL1        0.0000
     42 H           7.8613    7.4187   11.5612 H       1  UNL1        0.0000
     43 C           7.1020    7.3712    9.5581 C.ar    1  UNL1        0.0000
     44 H           6.4943    6.4948    9.7281 H       1  UNL1        0.0000
     45 C           7.1077    7.9822    8.3155 C.ar    1  UNL1        0.0000
     46 H           6.5000    7.5861    7.5153 H       1  UNL1        0.0000
     47 C           7.9010    9.0951    8.0966 C.ar    1  UNL1        0.0000
     48 H           7.9190    9.5676    7.1262 H       1  UNL1        0.0000
     49 C           8.6686    9.6138    9.1236 C.ar    1  UNL1        0.0000
     50 H           9.3008   10.4710    8.9511 H       1  UNL1        0.0000
     51 C           8.3955   11.9878   16.0025 C.3     1  UNL1        0.0000
     52 H           9.1296   11.9977   16.7827 H       1  UNL1        0.0000
     53 C           7.0198   11.9902   16.0700 C.2     1  UNL1        0.0000
     54 H           6.4083   12.0124   16.9481 H       1  UNL1        0.0000
     55 C           6.5882   11.9876   14.7361 C.2     1  UNL1        0.0000
     56 C           5.2271   12.0435   14.2236 C.ar    1  UNL1        0.0000
     57 C           4.1768   11.4492   14.9190 C.ar    1  UNL1        0.0000
     58 H           4.3790   10.9267   15.8414 H       1  UNL1        0.0000
     59 C           2.8918   11.4968   14.4130 C.ar    1  UNL1        0.0000
     60 H           2.0855   11.0219   14.9522 H       1  UNL1        0.0000
     61 C           2.6352   12.1410   13.2138 C.ar    1  UNL1        0.0000
     62 H           1.6308   12.1716   12.8190 H       1  UNL1        0.0000
     63 C           3.6714   12.7422   12.5183 C.ar    1  UNL1        0.0000
     64 H           3.4791   13.2429   11.5811 H       1  UNL1        0.0000
     65 C           4.9562   12.6966   13.0225 C.ar    1  UNL1        0.0000
     66 H           5.7702   13.1772   12.4771 H       1  UNL1        0.0000
     67 B          10.1186   12.0404   14.0311 B       1  UNL1        0.0000
     68 H          11.0192   12.0527   14.7911 H       1  UNL1        0.0000
@<TRIPOS>BOND
     1    48    47    1
     2    32    31    1
     3    46    45    1
     4     2    12    2
     5    30    29    1
     6    47    45   ar
     7    47    49   ar
     8    45    43   ar
     9    31    29   ar
    10    31    33   ar
    11    29    27   ar
    12    50    49    1
    13    49    40   ar
    14    12     3    2
    15    34    33    1
    16    33    24   ar
    17    43    44    1
    18    43    41   ar
    19    27    28    1
    20    27    25   ar
    21    14    13    1
    22     3     1    1
    23    40    41   ar
    24    40    39    1
    25    41    42    1
    26    24    25   ar
    27    24    23    1
    28    25    26    1
    29    13    15   ar
    30    13     4   ar
    31    16    15    1
    32    39    37    2
    33    39     8    1
    34    15    17   ar
    35    64    63    1
    36    23    21    2
    37    23     6    1
    38    22    21    1
    39    38    37    1
    40     4     1    1
    41     4     5   ar
    42    37    35    1
    43     1     8    1
    44     1     6    1
    45     1    10    1
    46    21    19    1
    47     8     9    1
    48     6     7    1
    49    66    65    1
    50    63    65   ar
    51    63    61   ar
    52    17     5   ar
    53    17    18    1
    54    62    61    1
    55    65    56   ar
    56    19     7    1
    57    19    20    1
    58    35     9    1
    59    35    36    1
    60     9    67    1
    61     7    67    1
    62    61    59   ar
    63    10    11    1
    64    10    55    1
    65    67    11    1
    66    67    68    1
    67    56    55    1
    68    56    57   ar
    69    59    57   ar
    70    59    60    1
    71    11    51    1
    72    55    53    2
    73    57    58    1
    74    51    53    1
    75    51    52    1
    76    53    54    1
