@<TRIPOS>MOLECULE
CSD_code = QEJMID | q = 0 | S = 0 | Stoichiometry = C40H32CoN2O2P3 | MND = 5
 80 88 0 0 0
SMALL
GASTEIGER

@<TRIPOS>ATOM
      1 CO          0.9841    5.8398    4.1641 Co.oh   1  UNL1        0.0000
      2 P           0.1371    6.2734    6.2006 P.3     1  UNL1        0.0000
      3 P           2.8280    5.8111    5.3614 P.3     1  UNL1        0.0000
      4 P           1.9914    3.8580    3.6813 P.3     1  UNL1        0.0000
      5 O          -1.6136    5.1721    3.0083 O.3     1  UNL1        0.0000
      6 O           2.4303    8.1249    3.0699 O.3     1  UNL1        0.0000
      7 N           3.1385    7.3362    6.0819 N.pl3   1  UNL1        0.0000
      8 N           4.1982    5.9681    4.3490 N.pl3   1  UNL1        0.0000
      9 C          -1.4658    7.1405    6.0484 C.ar    1  UNL1        0.0000
     10 C          -1.4639    8.2406    5.1943 C.ar    1  UNL1        0.0000
     11 C          -2.6126    8.9820    5.0030 C.ar    1  UNL1        0.0000
     12 C          -3.7806    8.6259    5.6593 C.ar    1  UNL1        0.0000
     13 C          -3.7891    7.5324    6.5079 C.ar    1  UNL1        0.0000
     14 C          -2.6373    6.7903    6.7076 C.ar    1  UNL1        0.0000
     15 C          -0.2717    4.9266    7.3536 C.ar    1  UNL1        0.0000
     16 C           0.3170    4.7769    8.6037 C.ar    1  UNL1        0.0000
     17 C          -0.0057    3.6824    9.3886 C.ar    1  UNL1        0.0000
     18 C          -0.9080    2.7357    8.9335 C.ar    1  UNL1        0.0000
     19 C          -1.4842    2.8721    7.6786 C.ar    1  UNL1        0.0000
     20 C          -1.1607    3.9566    6.8883 C.ar    1  UNL1        0.0000
     21 C           1.0176    7.4509    7.2685 C.ar    1  UNL1        0.0000
     22 C           0.2576    8.0256    8.2891 C.ar    1  UNL1        0.0000
     23 C           0.7756    8.9864    9.1286 C.ar    1  UNL1        0.0000
     24 C           2.0852    9.4044    8.9376 C.ar    1  UNL1        0.0000
     25 C           2.8556    8.8555    7.9374 C.ar    1  UNL1        0.0000
     26 C           2.3536    7.8638    7.0777 C.ar    1  UNL1        0.0000
     27 C           4.5029    7.7861    5.8973 C.3     1  UNL1        0.0000
     28 C           5.0246    7.1303    4.6209 C.3     1  UNL1        0.0000
     29 C           4.4348    5.2042    3.2308 C.ar    1  UNL1        0.0000
     30 C           5.5916    5.4161    2.4636 C.ar    1  UNL1        0.0000
     31 C           5.8710    4.6591    1.3477 C.ar    1  UNL1        0.0000
     32 C           5.0015    3.6585    0.9426 C.ar    1  UNL1        0.0000
     33 C           3.8496    3.4431    1.6682 C.ar    1  UNL1        0.0000
     34 C           3.5424    4.1949    2.8024 C.ar    1  UNL1        0.0000
     35 C           2.5926    2.6389    4.9034 C.ar    1  UNL1        0.0000
     36 C           3.5247    1.6685    4.5470 C.ar    1  UNL1        0.0000
     37 C           3.9317    0.7319    5.4793 C.ar    1  UNL1        0.0000
     38 C           3.4164    0.7546    6.7664 C.ar    1  UNL1        0.0000
     39 C           2.4903    1.7206    7.1238 C.ar    1  UNL1        0.0000
     40 C           2.0831    2.6592    6.1937 C.ar    1  UNL1        0.0000
     41 C           1.0568    2.8108    2.5241 C.ar    1  UNL1        0.0000
     42 C           0.6664    3.3945    1.3192 C.ar    1  UNL1        0.0000
     43 C          -0.1311    2.6975    0.4346 C.ar    1  UNL1        0.0000
     44 C          -0.5653    1.4194    0.7547 C.ar    1  UNL1        0.0000
     45 C          -0.2031    0.8471    1.9619 C.ar    1  UNL1        0.0000
     46 C           0.6016    1.5398    2.8510 C.ar    1  UNL1        0.0000
     47 C          -0.5811    5.4639    3.4239 C.3     1  UNL1        0.0000
     48 C           1.7821    7.2365    3.4182 C.3     1  UNL1        0.0000
     49 H          -0.5472    8.5000    4.6774 H       1  UNL1        0.0000
     50 H          -2.6023    9.8334    4.3382 H       1  UNL1        0.0000
     51 H          -4.6835    9.1986    5.5069 H       1  UNL1        0.0000
     52 H          -4.6981    7.2536    7.0215 H       1  UNL1        0.0000
     53 H          -2.6567    5.9422    7.3780 H       1  UNL1        0.0000
     54 H           1.0283    5.5100    8.9574 H       1  UNL1        0.0000
     55 H           0.4523    3.5693   10.3609 H       1  UNL1        0.0000
     56 H          -1.1569    1.8851    9.5512 H       1  UNL1        0.0000
     57 H          -2.1787    2.1276    7.3171 H       1  UNL1        0.0000
     58 H          -1.5786    4.0607    5.8939 H       1  UNL1        0.0000
     59 H          -0.7630    7.6928    8.4226 H       1  UNL1        0.0000
     60 H           0.1725    9.4067    9.9184 H       1  UNL1        0.0000
     61 H           2.5119   10.1613    9.5793 H       1  UNL1        0.0000
     62 H           3.8719    9.1980    7.8272 H       1  UNL1        0.0000
     63 H           5.1272    7.5030    6.7556 H       1  UNL1        0.0000
     64 H           4.5262    8.8750    5.7913 H       1  UNL1        0.0000
     65 H           6.0713    6.8381    4.7578 H       1  UNL1        0.0000
     66 H           4.9625    7.8305    3.7783 H       1  UNL1        0.0000
     67 H           6.2905    6.1875    2.7420 H       1  UNL1        0.0000
     68 H           6.7743    4.8539    0.7885 H       1  UNL1        0.0000
     69 H           5.2175    3.0590    0.0716 H       1  UNL1        0.0000
     70 H           3.1606    2.6743    1.3476 H       1  UNL1        0.0000
     71 H           3.9291    1.6482    3.5446 H       1  UNL1        0.0000
     72 H           4.6555   -0.0207    5.2005 H       1  UNL1        0.0000
     73 H           3.7402    0.0204    7.4896 H       1  UNL1        0.0000
     74 H           2.0835    1.7462    8.1246 H       1  UNL1        0.0000
     75 H           1.3646    3.4201    6.4615 H       1  UNL1        0.0000
     76 H           1.0034    4.3986    1.0900 H       1  UNL1        0.0000
     77 H          -0.4236    3.1503   -0.5016 H       1  UNL1        0.0000
     78 H          -1.1935    0.8744    0.0654 H       1  UNL1        0.0000
     79 H          -0.5511   -0.1438    2.2163 H       1  UNL1        0.0000
     80 H           0.8769    1.0931    3.7965 H       1  UNL1        0.0000
@<TRIPOS>BOND
     1    77    43    1
     2    78    44    1
     3    69    32    1
     4    43    44   ar
     5    43    42   ar
     6    44    45   ar
     7    68    31    1
     8    32    31   ar
     9    32    33   ar
    10    76    42    1
    11    42    41   ar
    12    70    33    1
    13    31    30   ar
    14    33    34   ar
    15    45    79    1
    16    45    46   ar
    17    30    67    1
    18    30    29   ar
    19    41    46   ar
    20    41     4    1
    21    34    29   ar
    22    34     4    1
    23    46    80    1
    24     5    47    1
    25     6    48    1
    26    29     8    1
    27    48     1    1
    28    47     1    1
    29    71    36    1
    30     4     1    1
    31     4    35    1
    32    66    28    1
    33     1     3    1
    34     1     2    1
    35    50    11    1
    36     8    28    1
    37     8     3    1
    38    36    35   ar
    39    36    37   ar
    40    28    65    1
    41    28    27    1
    42    49    10    1
    43    35    40   ar
    44    11    10   ar
    45    11    12   ar
    46    10     9   ar
    47    72    37    1
    48     3     7    1
    49    37    38   ar
    50    51    12    1
    51    12    13   ar
    52    64    27    1
    53    58    20    1
    54    27     7    1
    55    27    63    1
    56     9     2    1
    57     9    14   ar
    58     7    26    1
    59    40    75    1
    60    40    39   ar
    61     2    21    1
    62     2    15    1
    63    13    14   ar
    64    13    52    1
    65    14    53    1
    66    38    39   ar
    67    38    73    1
    68    20    15   ar
    69    20    19   ar
    70    26    21   ar
    71    26    25   ar
    72    39    74    1
    73    21    22   ar
    74    57    19    1
    75    15    16   ar
    76    19    18   ar
    77    62    25    1
    78    25    24   ar
    79    22    59    1
    80    22    23   ar
    81    16    54    1
    82    16    17   ar
    83    18    17   ar
    84    18    56    1
    85    24    23   ar
    86    24    61    1
    87    23    60    1
    88    17    55    1
