@<TRIPOS>MOLECULE
CSD_code = QERZIW | q = 0 | S = 0 | Stoichiometry = C6H17CoN6O6 | MND = 6
 36 37 0 0 0
SMALL
GASTEIGER

@<TRIPOS>ATOM
      1 CO          1.6978    5.9509   10.4655 Co.oh   1  UNL1        0.0000
      2 N           2.1552    6.1685   12.4598 N.4     1  UNL1        0.0000
      3 H           3.0464    5.6599   12.5045 H       1  UNL1        0.0000
      4 H           2.3840    7.1516   12.6240 H       1  UNL1        0.0000
      5 N           1.1526    3.8857   10.8892 N.4     1  UNL1        0.0000
      6 H           0.1385    3.9326   10.7433 H       1  UNL1        0.0000
      7 N           1.1877    5.5165    8.4919 N.4     1  UNL1        0.0000
      8 H           0.1642    5.5621    8.4689 H       1  UNL1        0.0000
      9 H           1.5254    6.3024    7.9315 H       1  UNL1        0.0000
     10 N          -0.0416    6.4344   10.8078 N.pl3   1  UNL1        0.0000
     11 N           2.1257    7.6399   10.0905 N.pl3   1  UNL1        0.0000
     12 N           3.4427    5.4346   10.1493 N.pl3   1  UNL1        0.0000
     13 O          -0.9340    5.7365   10.3127 O.2     1  UNL1        0.0000
     14 O          -0.2758    7.3820   11.5398 O.2     1  UNL1        0.0000
     15 O           1.6457    8.0985    9.0824 O.2     1  UNL1        0.0000
     16 O           2.8660    8.2073   10.8566 O.2     1  UNL1        0.0000
     17 O           3.9430    5.6670    9.0578 O.2     1  UNL1        0.0000
     18 O           4.0503    4.8336   11.0393 O.2     1  UNL1        0.0000
     19 C           1.3020    5.7060   13.5603 C.3     1  UNL1        0.0000
     20 H           0.5500    6.4711   13.7639 H       1  UNL1        0.0000
     21 H           1.9142    5.5832   14.4613 H       1  UNL1        0.0000
     22 C           0.5899    4.3825   13.2448 C.3     1  UNL1        0.0000
     23 H           0.4222    3.8511   14.1816 H       1  UNL1        0.0000
     24 H          -0.3916    4.5883   12.8137 H       1  UNL1        0.0000
     25 C           1.3536    3.4724   12.2840 C.3     1  UNL1        0.0000
     26 H           2.4251    3.4719   12.4984 H       1  UNL1        0.0000
     27 H           0.9868    2.4438   12.4154 H       1  UNL1        0.0000
     28 C           1.6452    2.8628    9.9588 C.3     1  UNL1        0.0000
     29 H           2.7367    2.8954    9.9311 H       1  UNL1        0.0000
     30 H           1.3540    1.8663   10.3225 H       1  UNL1        0.0000
     31 C           1.0687    3.0447    8.5576 C.3     1  UNL1        0.0000
     32 H           1.3170    2.1624    7.9667 H       1  UNL1        0.0000
     33 H          -0.0209    3.1087    8.6241 H       1  UNL1        0.0000
     34 C           1.6010    4.2743    7.8295 C.3     1  UNL1        0.0000
     35 H           1.2271    4.2607    6.7982 H       1  UNL1        0.0000
     36 H           2.6918    4.2480    7.7905 H       1  UNL1        0.0000
@<TRIPOS>BOND
     1    35    34    1
     2    36    34    1
     3    34     7    1
     4    34    31    1
     5     9     7    1
     6    32    31    1
     7     8     7    1
     8     7     1    1
     9    31    33    1
    10    31    28    1
    11    17    12    2
    12    15    11    2
    13    29    28    1
    14    28    30    1
    15    28     5    1
    16    11     1    1
    17    11    16    2
    18    12     1    1
    19    12    18    2
    20    13    10    2
    21     1    10    1
    22     1     5    1
    23     1     2    1
    24     6     5    1
    25    10    14    2
    26     5    25    1
    27    25    27    1
    28    25    26    1
    29    25    22    1
    30     2     3    1
    31     2     4    1
    32     2    19    1
    33    24    22    1
    34    22    19    1
    35    22    23    1
    36    19    20    1
    37    19    21    1
