@<TRIPOS>MOLECULE
CSD_code = QERZES | q = 0 | S = 0 | Stoichiometry = C6H17CoN6O6 | MND = 6
 36 37 0 0 0
SMALL
GASTEIGER

@<TRIPOS>ATOM
      1 CO          1.7026    8.3858    3.9882 Co.oh   1  UNL1        0.0000
      2 N           0.2684    7.3069    2.9819 N.4     1  UNL1        0.0000
      3 H           0.6641    6.4834    2.5261 H       1  UNL1        0.0000
      4 H          -0.1136    7.9103    2.2503 H       1  UNL1        0.0000
      5 N           0.1211    8.4135    5.5855 N.4     1  UNL1        0.0000
      6 N           2.8675    9.5507    5.2300 N.4     1  UNL1        0.0000
      7 H           3.6294    9.9003    4.6436 H       1  UNL1        0.0000
      8 H           3.2962    8.8823    5.8816 H       1  UNL1        0.0000
      9 N           2.3795    6.8247    4.7478 N.pl3   1  UNL1        0.0000
     10 N           2.9400    8.2288    2.7283 N.pl3   1  UNL1        0.0000
     11 N           1.0845    9.9347    3.1776 N.pl3   1  UNL1        0.0000
     12 O           3.1219    6.9036    5.7251 O.2     1  UNL1        0.0000
     13 O           2.0516    5.7481    4.2629 O.2     1  UNL1        0.0000
     14 O           2.5620    7.7682    1.6803 O.2     1  UNL1        0.0000
     15 O           4.0587    8.5762    3.0110 O.2     1  UNL1        0.0000
     16 O           1.8870   10.8449    3.0145 O.2     1  UNL1        0.0000
     17 O          -0.0822   10.0149    2.7948 O.2     1  UNL1        0.0000
     18 C          -0.8192    6.9030    3.8772 C.3     1  UNL1        0.0000
     19 H          -0.5062    6.0055    4.4139 H       1  UNL1        0.0000
     20 H          -1.7325    6.6663    3.3205 H       1  UNL1        0.0000
     21 C          -1.1010    8.0539    4.8403 C.3     1  UNL1        0.0000
     22 H          -1.4129    8.9166    4.2486 H       1  UNL1        0.0000
     23 H          -1.9124    7.7892    5.5305 H       1  UNL1        0.0000
     24 C          -0.0506    9.7547    6.1692 C.3     1  UNL1        0.0000
     25 H          -0.8939    9.7319    6.8764 H       1  UNL1        0.0000
     26 H          -0.3094   10.4506    5.3684 H       1  UNL1        0.0000
     27 C           1.1785   10.2927    6.9029 C.3     1  UNL1        0.0000
     28 H           0.8672   11.1852    7.4482 H       1  UNL1        0.0000
     29 H           1.5340    9.5705    7.6376 H       1  UNL1        0.0000
     30 C           2.3265   10.6886    5.9792 C.3     1  UNL1        0.0000
     31 H           1.9870   11.4421    5.2651 H       1  UNL1        0.0000
     32 H           3.1191   11.1412    6.5882 H       1  UNL1        0.0000
     33 C           0.2925    7.4456    6.6755 C.3     1  UNL1        0.0000
     34 H          -0.5034    7.5620    7.4208 H       1  UNL1        0.0000
     35 H           0.2545    6.4294    6.2930 H       1  UNL1        0.0000
     36 H           1.2542    7.5715    7.1646 H       1  UNL1        0.0000
@<TRIPOS>BOND
     1    14    10    2
     2     4     2    1
     3     3     2    1
     4    10    15    2
     5    10     1    1
     6    17    11    2
     7     2    18    1
     8     2     1    1
     9    16    11    2
    10    11     1    1
    11    20    18    1
    12    18    19    1
    13    18    21    1
    14     1     9    1
    15     1     6    1
    16     1     5    1
    17    22    21    1
    18    13     9    2
    19     7     6    1
    20     9    12    2
    21    21    23    1
    22    21     5    1
    23     6     8    1
    24     6    30    1
    25    31    30    1
    26    26    24    1
    27     5    24    1
    28     5    33    1
    29    30    32    1
    30    30    27    1
    31    24    25    1
    32    24    27    1
    33    35    33    1
    34    33    36    1
    35    33    34    1
    36    27    28    1
    37    27    29    1
