@<TRIPOS>MOLECULE
CSD_code = QIGRON | q = 0 | S = 0 | Stoichiometry = C5H15Cl3CoN3 | MND = 6
 27 28 0 0 0
SMALL
GASTEIGER

@<TRIPOS>ATOM
      1 CO          0.8481    2.2916    0.1994 Co.oh   1  UNL1        0.0000
      2 CL         -1.1683    2.3892   -0.6871 Cl      1  UNL1        0.0000
      3 CL          1.7883    2.4107   -1.7518 Cl      1  UNL1        0.0000
      4 CL          2.8250    2.2052    1.2556 Cl      1  UNL1        0.0000
      5 N           0.8399    4.2402    0.3573 N.4     1  UNL1        0.0000
      6 H           1.7180    4.6451    0.0280 H       1  UNL1        0.0000
      7 H           0.0960    4.5778   -0.2599 H       1  UNL1        0.0000
      8 N           0.0322    2.2904    2.0397 N.4     1  UNL1        0.0000
      9 H           0.8783    2.1608    2.6035 H       1  UNL1        0.0000
     10 N           0.8651    0.3384    0.0630 N.4     1  UNL1        0.0000
     11 H           0.9016    0.1458   -0.9424 H       1  UNL1        0.0000
     12 H           1.7697    0.0488    0.4485 H       1  UNL1        0.0000
     13 C           0.5648    4.6231    1.7455 C.3     1  UNL1        0.0000
     14 H           0.2052    5.6549    1.8217 H       1  UNL1        0.0000
     15 H           1.4907    4.5222    2.3186 H       1  UNL1        0.0000
     16 C          -0.4748    3.6424    2.2813 C.3     1  UNL1        0.0000
     17 H          -0.6684    3.8155    3.3471 H       1  UNL1        0.0000
     18 H          -1.4088    3.7530    1.7234 H       1  UNL1        0.0000
     19 C          -0.9321    1.2545    2.3961 C.3     1  UNL1        0.0000
     20 H          -1.8196    1.3970    1.7743 H       1  UNL1        0.0000
     21 H          -1.2196    1.3581    3.4513 H       1  UNL1        0.0000
     22 C          -0.3596   -0.1404    2.1580 C.3     1  UNL1        0.0000
     23 H          -1.0339   -0.8738    2.6011 H       1  UNL1        0.0000
     24 H           0.6112   -0.2289    2.6521 H       1  UNL1        0.0000
     25 C          -0.2070   -0.4544    0.6713 C.3     1  UNL1        0.0000
     26 H          -1.1398   -0.2178    0.1540 H       1  UNL1        0.0000
     27 H           0.0033   -1.5238    0.5458 H       1  UNL1        0.0000
@<TRIPOS>BOND
     1     3     1    1
     2    11    10    1
     3     2     1    1
     4     7     5    1
     5     6     5    1
     6    10     1    1
     7    10    12    1
     8    10    25    1
     9    26    25    1
    10     1     5    1
    11     1     4    1
    12     1     8    1
    13     5    13    1
    14    27    25    1
    15    25    22    1
    16    18    16    1
    17    13    14    1
    18    13    16    1
    19    13    15    1
    20    20    19    1
    21     8    16    1
    22     8    19    1
    23     8     9    1
    24    22    19    1
    25    22    23    1
    26    22    24    1
    27    16    17    1
    28    19    21    1
