@<TRIPOS>MOLECULE
CSD_code = QIGRED | q = 0 | S = 0 | Stoichiometry = C7H13CoN6 | MND = 6
 27 28 0 0 0
SMALL
GASTEIGER

@<TRIPOS>ATOM
      1 CO          0.5662   10.8591    6.5441 Co.oh   1  UNL1        0.0000
      2 N           0.1933   12.5427    7.7624 N.4     1  UNL1        0.0000
      3 H           0.6697   13.3889    7.4522 H       1  UNL1        0.0000
      4 H          -0.8033   12.7542    7.7712 H       1  UNL1        0.0000
      5 N           2.1418   10.6315    7.9486 N.4     1  UNL1        0.0000
      6 H           2.0394    9.7022    8.3520 H       1  UNL1        0.0000
      7 N           2.1385   11.8005    5.4357 N.4     1  UNL1        0.0000
      8 H           2.2752   11.1441    4.6663 H       1  UNL1        0.0000
      9 H           1.9254   12.6981    5.0056 H       1  UNL1        0.0000
     10 N           1.3979    8.3959    5.1205 N.1     1  UNL1        0.0000
     11 N          -1.4338   11.7554    4.5472 N.1     1  UNL1        0.0000
     12 N          -1.3654    9.3868    8.2482 N.1     1  UNL1        0.0000
     13 C           0.6363   12.1849    9.1140 C.3     1  UNL1        0.0000
     14 H          -0.0344   11.4113    9.4952 H       1  UNL1        0.0000
     15 H           0.6133   13.0409    9.8015 H       1  UNL1        0.0000
     16 C           2.0599   11.6289    9.0258 C.3     1  UNL1        0.0000
     17 H           2.3526   11.2067    9.9932 H       1  UNL1        0.0000
     18 H           2.7461   12.4506    8.8005 H       1  UNL1        0.0000
     19 C           3.3993   10.6857    7.1991 C.3     1  UNL1        0.0000
     20 H           3.4863    9.7640    6.6187 H       1  UNL1        0.0000
     21 H           4.2706   10.7672    7.8636 H       1  UNL1        0.0000
     22 C           3.3662   11.8745    6.2315 C.3     1  UNL1        0.0000
     23 H           3.3666   12.8150    6.7914 H       1  UNL1        0.0000
     24 H           4.2691   11.8598    5.6086 H       1  UNL1        0.0000
     25 C           0.9516    9.3106    5.6534 C.1     1  UNL1        0.0000
     26 C          -0.7091   11.3017    5.3133 C.1     1  UNL1        0.0000
     27 C          -0.6667    9.9133    7.5047 C.1     1  UNL1        0.0000
@<TRIPOS>BOND
     1    11    26    3
     2     8     7    1
     3     9     7    1
     4    10    25    3
     5    26     1    1
     6     7    22    1
     7     7     1    1
     8    24    22    1
     9    25     1    1
    10    22    23    1
    11    22    19    1
    12     1    27    1
    13     1     2    1
    14     1     5    1
    15    20    19    1
    16    19    21    1
    17    19     5    1
    18     3     2    1
    19    27    12    3
    20     2     4    1
    21     2    13    1
    22     5     6    1
    23     5    16    1
    24    18    16    1
    25    16    13    1
    26    16    17    1
    27    13    14    1
    28    13    15    1
