@<TRIPOS>MOLECULE
CSD_code = QIGRAZ | q = 0 | S = 0 | Stoichiometry = C7H13CoN6 | MND = 6
 27 28 0 0 0
SMALL
GASTEIGER

@<TRIPOS>ATOM
      1 CO          4.0872    3.1664    3.3328 Co.oh   1  UNL1        0.0000
      2 N           2.6797    1.6200    3.7332 N.4     1  UNL1        0.0000
      3 H           3.1727    0.7838    3.4178 H       1  UNL1        0.0000
      4 H           1.8141    1.6570    3.1991 H       1  UNL1        0.0000
      5 N           4.2385    3.1664    5.4206 N.4     1  UNL1        0.0000
      6 H           5.2277    3.1664    5.6629 H       1  UNL1        0.0000
      7 N           3.3255    3.1665    0.4666 N.1     1  UNL1        0.0000
      8 N           6.0868    0.9854    3.1689 N.1     1  UNL1        0.0000
      9 C           2.4082    1.5101    5.1684 C.3     1  UNL1        0.0000
     10 H           2.1320    0.4884    5.4600 H       1  UNL1        0.0000
     11 H           1.5691    2.1604    5.4250 H       1  UNL1        0.0000
     12 C           3.6631    1.9240    5.9466 C.3     1  UNL1        0.0000
     13 H           3.4235    2.0127    7.0152 H       1  UNL1        0.0000
     14 H           4.4132    1.1384    5.8217 H       1  UNL1        0.0000
     15 C           3.7362    3.1664    1.5388 C.1     1  UNL1        0.0000
     16 C           5.3731    1.8843    3.1282 C.1     1  UNL1        0.0000
     17 N           2.6797    4.7129    3.7333 N.4     1  UNL1        0.0000
     18 H           3.1727    5.5490    3.4177 H       1  UNL1        0.0000
     19 H           1.8140    4.6759    3.1992 H       1  UNL1        0.0000
     20 C           2.4083    4.8229    5.1684 C.3     1  UNL1        0.0000
     21 H           2.1323    5.8447    5.4599 H       1  UNL1        0.0000
     22 H           1.5692    4.1728    5.4251 H       1  UNL1        0.0000
     23 C           3.6633    4.4090    5.9465 C.3     1  UNL1        0.0000
     24 H           3.4237    4.3204    7.0152 H       1  UNL1        0.0000
     25 H           4.4135    5.1945    5.8215 H       1  UNL1        0.0000
     26 C           5.3729    4.4488    3.1285 C.1     1  UNL1        0.0000
     27 N           6.0863    5.3479    3.1690 N.1     1  UNL1        0.0000
@<TRIPOS>BOND
     1     7    15    3
     2    15     1    1
     3    16     8    3
     4    16     1    1
     5    26    27    3
     6    26     1    1
     7     4     2    1
     8    19    17    1
     9     1     2    1
    10     1    17    1
    11     1     5    1
    12    18    17    1
    13     3     2    1
    14     2     9    1
    15    17    20    1
    16     9    11    1
    17     9    10    1
    18     9    12    1
    19    20    22    1
    20    20    21    1
    21    20    23    1
    22     5     6    1
    23     5    23    1
    24     5    12    1
    25    25    23    1
    26    14    12    1
    27    23    24    1
    28    12    13    1
