@<TRIPOS>MOLECULE
CSD_code = QIGSEE | q = 0 | S = 0 | Stoichiometry = C6H18CoN5O4 | MND = 6
 34 35 0 0 0
SMALL
GASTEIGER

@<TRIPOS>ATOM
      1 CO          8.0352    4.5000    7.1362 Co.oh   1  UNL1        0.0000
      2 N           6.3631    3.6964    6.2582 N.4     1  UNL1        0.0000
      3 H           6.2299    2.7264    6.5380 H       1  UNL1        0.0000
      4 H           5.5659    4.2244    6.6203 H       1  UNL1        0.0000
      5 N           8.7454    4.4207    5.0616 N.4     1  UNL1        0.0000
      6 H           8.5617    5.3748    4.7457 H       1  UNL1        0.0000
      7 N           9.8143    5.3327    7.6313 N.4     1  UNL1        0.0000
      8 H           9.6594    6.3205    7.3885 H       1  UNL1        0.0000
      9 H           9.9064    5.2942    8.6487 H       1  UNL1        0.0000
     10 N           7.3862    4.5618    8.7487 N.pl3   1  UNL1        0.0000
     11 N           7.3595    6.2028    6.7115 N.pl3   1  UNL1        0.0000
     12 C           8.7075    2.6700    7.6114 C.3     1  UNL1        0.0000
     13 H           9.1717    2.1615    6.7655 H       1  UNL1        0.0000
     14 H           7.9039    2.0214    7.9662 H       1  UNL1        0.0000
     15 H           9.4486    2.6979    8.4114 H       1  UNL1        0.0000
     16 O           8.0629    5.0631    9.6248 O.2     1  UNL1        0.0000
     17 O           6.2681    4.1198    8.8902 O.2     1  UNL1        0.0000
     18 O           8.1561    7.1011    6.3931 O.2     1  UNL1        0.0000
     19 O           6.1442    6.3720    6.6358 O.2     1  UNL1        0.0000
     20 C           6.4132    3.8068    4.7987 C.3     1  UNL1        0.0000
     21 H           6.1331    4.8262    4.5198 H       1  UNL1        0.0000
     22 H           5.7184    3.1147    4.3096 H       1  UNL1        0.0000
     23 C           7.8421    3.5281    4.3369 C.3     1  UNL1        0.0000
     24 H           8.1095    2.4982    4.5872 H       1  UNL1        0.0000
     25 H           7.9258    3.6535    3.2477 H       1  UNL1        0.0000
     26 C          10.1509    4.1526    4.7710 C.3     1  UNL1        0.0000
     27 H          10.3387    4.2233    3.6885 H       1  UNL1        0.0000
     28 H          10.3811    3.1321    5.0864 H       1  UNL1        0.0000
     29 C          11.0649    5.1305    5.5037 C.3     1  UNL1        0.0000
     30 H          10.7493    6.1538    5.2880 H       1  UNL1        0.0000
     31 H          12.0802    5.0035    5.1257 H       1  UNL1        0.0000
     32 C          11.0762    4.9187    7.0160 C.3     1  UNL1        0.0000
     33 H          11.2505    3.8641    7.2389 H       1  UNL1        0.0000
     34 H          11.9045    5.4999    7.4419 H       1  UNL1        0.0000
@<TRIPOS>BOND
     1    25    23    1
     2    27    26    1
     3    22    20    1
     4    23    24    1
     5    23    20    1
     6    23     5    1
     7    21    20    1
     8     6     5    1
     9    26     5    1
    10    26    28    1
    11    26    29    1
    12    20     2    1
    13     5     1    1
    14    31    29    1
    15    30    29    1
    16    29    32    1
    17     2     3    1
    18     2     4    1
    19     2     1    1
    20    18    11    2
    21    19    11    2
    22    11     1    1
    23    13    12    1
    24    32    33    1
    25    32    34    1
    26    32     7    1
    27     1    12    1
    28     1     7    1
    29     1    10    1
    30     8     7    1
    31    12    14    1
    32    12    15    1
    33     7     9    1
    34    10    17    2
    35    10    16    2
