@<TRIPOS>MOLECULE
CSD_code = QUPSEZ | q = 1 | S = 0 | Stoichiometry = C22H18CoN8O2(1+) | MND = 6
 51 58 0 0 0
SMALL
GASTEIGER

@<TRIPOS>ATOM
      1 CO         -0.6362    3.1041    7.1302 Co.oh   1  UNL1        0.0000
      2 N          -0.5976    4.4487    5.7231 N.pl3   1  UNL1        0.5000
      3 N          -1.7527    4.1389    8.1851 N.am    1  UNL1        0.0000
      4 N          -1.0493    2.1820    8.7720 N.pl3   1  UNL1        0.0000
      5 N           1.0750    3.7051    7.8361 N.pl3   1  UNL1        0.5000
      6 N           0.1556    1.7081    6.2055 N.am    1  UNL1        0.0000
      7 N          -1.9730    2.0803    6.1914 N.pl3   1  UNL1        0.0000
      8 C           0.2357    4.2820    4.6810 C.3     1  UNL1        0.0000
      9 C           0.3356    5.1525    3.6242 C.2     1  UNL1        0.0000
     10 C          -0.4766    6.2850    3.6202 C.2     1  UNL1        0.0000
     11 C          -1.3273    6.4774    4.6778 C.2     1  UNL1        0.0000
     12 C          -1.3792    5.5491    5.7390 C.2     1  UNL1        0.0000
     13 N          -2.2518    5.8401    6.7480 N.am    1  UNL1        0.5000
     14 C          -2.5435    5.2006    7.9733 C.2     1  UNL1        0.0000
     15 O          -3.4081    5.6474    8.6875 O.2     1  UNL1        0.0000
     16 C          -1.8701    3.1882    9.1526 C.3     1  UNL1        0.0000
     17 C          -2.6316    3.1309   10.3171 C.2     1  UNL1        0.0000
     18 C          -2.5097    1.9933   11.0905 C.2     1  UNL1        0.0000
     19 C          -1.6550    0.9647   10.6946 C.2     1  UNL1        0.0000
     20 C          -0.9398    1.0912    9.5192 C.2     1  UNL1        0.0000
     21 C           1.1325    4.8633    8.5168 C.3     1  UNL1        0.0000
     22 C           2.2762    5.3733    9.0793 C.2     1  UNL1        0.0000
     23 C           3.4599    4.6503    8.9438 C.2     1  UNL1        0.0000
     24 C           3.4242    3.4713    8.2453 C.2     1  UNL1        0.0000
     25 C           2.2178    3.0032    7.6831 C.2     1  UNL1        0.0000
     26 N           2.2932    1.8252    6.9970 N.am    1  UNL1        0.5000
     27 C           1.3393    1.0815    6.2674 C.2     1  UNL1        0.0000
     28 O           1.6562    0.0250    5.7768 O.2     1  UNL1        0.0000
     29 C          -1.0311    1.2091    5.7618 C.3     1  UNL1        0.0000
     30 C          -1.3479    0.0672    5.0303 C.2     1  UNL1        0.0000
     31 C          -2.6826   -0.1445    4.7454 C.2     1  UNL1        0.0000
     32 C          -3.6460    0.7623    5.1866 C.2     1  UNL1        0.0000
     33 C          -3.2534    1.8680    5.9163 C.2     1  UNL1        0.0000
     34 H           0.8473    3.3922    4.7026 H       1  UNL1        0.0000
     35 H           1.0251    4.9529    2.8217 H       1  UNL1        0.0000
     36 H          -0.4371    6.9937    2.8084 H       1  UNL1        0.0000
     37 H          -1.9698    7.3431    4.7167 H       1  UNL1        0.0000
     38 H          -2.8173    6.6702    6.6115 H       1  UNL1        0.0000
     39 H          -3.2836    3.9499   10.5729 H       1  UNL1        0.0000
     40 H          -3.0779    1.8982   12.0027 H       1  UNL1        0.0000
     41 H          -1.5510    0.0743   11.2920 H       1  UNL1        0.0000
     42 H          -0.2746    0.3137    9.1685 H       1  UNL1        0.0000
     43 H           0.2005    5.3997    8.6167 H       1  UNL1        0.0000
     44 H           2.2467    6.3076    9.6134 H       1  UNL1        0.0000
     45 H           4.3813    5.0081    9.3749 H       1  UNL1        0.0000
     46 H           4.3188    2.8832    8.1126 H       1  UNL1        0.0000
     47 H           3.2008    1.3739    7.0014 H       1  UNL1        0.0000
     48 H          -0.5656   -0.6064    4.7214 H       1  UNL1        0.0000
     49 H          -2.9817   -1.0144    4.1816 H       1  UNL1        0.0000
     50 H          -4.6894    0.6070    4.9684 H       1  UNL1        0.0000
     51 H          -3.9676    2.5905    6.2877 H       1  UNL1        0.0000
@<TRIPOS>BOND
     1    36    10    1
     2    35     9    1
     3    10     9    2
     4    10    11    1
     5     9     8    1
     6    49    31    1
     7    11    37    1
     8    11    12    2
     9     8    34    1
    10     8     2    1
    11    48    30    1
    12    31    30    2
    13    31    32    1
    14    50    32    1
    15    30    29    1
    16    32    33    2
    17     2    12    1
    18     2     1    1
    19    12    13    1
    20    29     7    1
    21    29     6    1
    22    28    27    2
    23    33     7    1
    24    33    51    1
    25     7     1    1
    26     6    27   am
    27     6     1    1
    28    27    26   am
    29    38    13    1
    30    13    14   am
    31    26    47    1
    32    26    25    1
    33     1     5    1
    34     1     3    1
    35     1     4    1
    36    25     5    1
    37    25    24    2
    38     5    21    1
    39    14     3   am
    40    14    15    2
    41    46    24    1
    42     3    16    1
    43    24    23    1
    44    21    43    1
    45    21    22    1
    46     4    16    1
    47     4    20    1
    48    23    22    2
    49    23    45    1
    50    22    44    1
    51    16    17    1
    52    42    20    1
    53    20    19    2
    54    17    39    1
    55    17    18    2
    56    19    18    1
    57    19    41    1
    58    18    40    1
