@<TRIPOS>MOLECULE
CSD_code = RAQWOX | q = 1 | S = 0 | Stoichiometry = C15H23CoN5OS(1+) | MND = 6
 46 49 0 0 0
SMALL
GASTEIGER

@<TRIPOS>ATOM
      1 CO          0.7971   11.3454    9.2094 Co.oh   1  UNL1        0.0000
      2 S           3.2602   12.7028    5.8994 S.2     1  UNL1        0.0000
      3 C           2.1260   12.3857    6.9323 C.1     1  UNL1        0.0000
      4 N           1.1898   12.2304    7.6490 N.2     1  UNL1        0.0000
      5 O           1.7664    9.8760    8.7079 O.3     1  UNL1        0.0000
      6 C           3.0379    9.8888    8.4556 C.ar    1  UNL1        0.0000
      7 C           3.5416    8.8884    7.5969 C.ar    1  UNL1        0.0000
      8 H           2.8334    8.1856    7.1862 H       1  UNL1        0.0000
      9 C           4.8706    8.8283    7.2733 C.ar    1  UNL1        0.0000
     10 H           5.2245    8.0673    6.5952 H       1  UNL1        0.0000
     11 C           5.7625    9.7691    7.7936 C.ar    1  UNL1        0.0000
     12 H           6.8000    9.7467    7.5019 H       1  UNL1        0.0000
     13 C           5.3142   10.7252    8.6646 C.ar    1  UNL1        0.0000
     14 H           6.0138   11.4629    9.0218 H       1  UNL1        0.0000
     15 C           3.9561   10.8108    9.0434 C.ar    1  UNL1        0.0000
     16 C           3.5139   11.8164    9.9622 C.3     1  UNL1        0.0000
     17 C           4.5401   12.4733   10.8405 C.3     1  UNL1        0.0000
     18 H           4.8399   13.4325   10.4181 H       1  UNL1        0.0000
     19 H           5.4196   11.8464   10.9366 H       1  UNL1        0.0000
     20 H           4.1457   12.6424   11.8401 H       1  UNL1        0.0000
     21 N           2.2480   12.1560   10.0571 N.pl3   1  UNL1        0.0000
     22 C           1.8411   13.2721   10.7729 C.2     1  UNL1        0.0000
     23 H           2.5580   13.8223   11.3612 H       1  UNL1        0.0000
     24 C           0.5818   13.7045   10.6660 C.2     1  UNL1        0.0000
     25 C           0.0140   14.9142   11.3251 C.3     1  UNL1        0.0000
     26 H           0.7470   15.3818   11.9739 H       1  UNL1        0.0000
     27 H          -0.8620   14.6585   11.9223 H       1  UNL1        0.0000
     28 H          -0.2970   15.6446   10.5777 H       1  UNL1        0.0000
     29 N          -0.2852   12.9590    9.7817 N.pl3   1  UNL1        0.0000
     30 H          -1.2106   12.8659   10.2036 H       1  UNL1        0.0000
     31 H          -0.4236   13.5192    8.9347 H       1  UNL1        0.0000
     32 N          -0.7913   10.4142    8.3631 N.4     1  UNL1        0.0000
     33 H          -1.3736   10.9600    7.7300 H       1  UNL1        0.0000
     34 H          -0.3329    9.7072    7.7854 H       1  UNL1        0.0000
     35 C          -1.6094    9.7390    9.3768 C.3     1  UNL1        0.0000
     36 H          -2.2221    8.9422    8.9435 H       1  UNL1        0.0000
     37 H          -2.2788   10.4674    9.8438 H       1  UNL1        0.0000
     38 C          -0.6614    9.1600   10.4299 C.3     1  UNL1        0.0000
     39 H          -0.0132    8.4269    9.9400 H       1  UNL1        0.0000
     40 C          -1.4078    8.5089   11.5874 C.3     1  UNL1        0.0000
     41 H          -2.0672    9.2241   12.0764 H       1  UNL1        0.0000
     42 H          -0.7092    8.1195   12.3239 H       1  UNL1        0.0000
     43 H          -2.0122    7.6808   11.2296 H       1  UNL1        0.0000
     44 N           0.2069   10.2651   10.8842 N.4     1  UNL1        0.0000
     45 H          -0.2975   10.8088   11.5854 H       1  UNL1        0.0000
     46 H           1.0142    9.8666   11.3606 H       1  UNL1        0.0000
@<TRIPOS>BOND
     1     2     3    2
     2    10     9    1
     3     3     4    2
     4     8     7    1
     5     9     7   ar
     6     9    11   ar
     7    12    11    1
     8     7     6   ar
     9     4     1    1
    10    33    32    1
    11    34    32    1
    12    11    13   ar
    13    32     1    1
    14    32    35    1
    15     6     5    1
    16     6    15   ar
    17    13    14    1
    18    13    15   ar
    19     5     1    1
    20    31    29    1
    21    36    35    1
    22    15    16    1
    23     1    29    1
    24     1    21    1
    25     1    44    1
    26    35    37    1
    27    35    38    1
    28    29    30    1
    29    29    24    1
    30    39    38    1
    31    16    21    1
    32    16    17    1
    33    21    22    1
    34    18    17    1
    35    38    44    1
    36    38    40    1
    37    28    25    1
    38    24    22    2
    39    24    25    1
    40    22    23    1
    41    17    19    1
    42    17    20    1
    43    44    46    1
    44    44    45    1
    45    43    40    1
    46    25    27    1
    47    25    26    1
    48    40    41    1
    49    40    42    1
