@<TRIPOS>MOLECULE
CSD_code = RARRIL | q = 0 | S = 0 | Stoichiometry = C16H17CoO8S2 | MND = 8
 44 44 0 0 0
SMALL
GASTEIGER

@<TRIPOS>ATOM
      1 CO          7.4588   12.7188   -0.9436 Co.oh   1  UNL1        0.0000
      2 S           7.4488   11.5073    0.8956 S.3     1  UNL1        0.0000
      3 S           5.7478   11.5125   -1.8355 S.2     1  UNL1        0.0000
      4 O           5.3435    8.2217    1.1936 O.3     1  UNL1        0.0000
      5 O           6.8529    9.2311    2.5274 O.2     1  UNL1        0.0000
      6 O           4.7885    8.3954   -1.7394 O.3     1  UNL1        0.0000
      7 O           3.3080    9.5028   -0.4672 O.2     1  UNL1        0.0000
      8 O           4.5974   12.0668    1.7272 O.3     1  UNL1        0.0000
      9 O           4.2829   13.6874    0.1987 O.2     1  UNL1        0.0000
     10 O           6.2514   14.9876    1.9611 O.3     1  UNL1        0.0000
     11 O           8.2866   14.0385    1.9227 O.2     1  UNL1        0.0000
     12 C           6.2677   10.2496    0.4940 C.3     1  UNL1        0.0000
     13 C           5.5396   10.3214   -0.6511 C.2     1  UNL1        0.0000
     14 C           6.1989    9.2104    1.5116 C.2     1  UNL1        0.0000
     15 C           5.2187    7.1916    2.1651 C.3     1  UNL1        0.0000
     16 C           4.4132    9.3611   -0.9168 C.2     1  UNL1        0.0000
     17 C           3.7872    7.4420   -2.0772 C.3     1  UNL1        0.0000
     18 C           6.5043   13.0007    0.7425 C.3     1  UNL1        0.0000
     19 C           5.0032   12.9629    0.8297 C.2     1  UNL1        0.0000
     20 C           3.1905   11.8851    1.8752 C.3     1  UNL1        0.0000
     21 C           7.1244   14.0499    1.5869 C.2     1  UNL1        0.0000
     22 C           6.7734   16.0272    2.7775 C.3     1  UNL1        0.0000
     23 C           8.2845   14.6280   -1.3648 C.2     1  UNL1        0.0000
     24 C           7.7112   14.0393   -2.5116 C.3     1  UNL1        0.0000
     25 C           8.4196   12.8222   -2.7810 C.2     1  UNL1        0.0000
     26 C           9.3952   12.6548   -1.7844 C.2     1  UNL1        0.0000
     27 C           9.2901   13.7537   -0.8869 C.2     1  UNL1        0.0000
     28 H           4.9595    7.6176    3.1363 H       1  UNL1        0.0000
     29 H           4.4280    6.5352    1.8111 H       1  UNL1        0.0000
     30 H           6.1598    6.6456    2.2591 H       1  UNL1        0.0000
     31 H           2.9741    7.9265   -2.6211 H       1  UNL1        0.0000
     32 H           4.2762    6.6982   -2.7004 H       1  UNL1        0.0000
     33 H           3.3849    6.9853   -1.1713 H       1  UNL1        0.0000
     34 H           2.6699   12.8152    1.6434 H       1  UNL1        0.0000
     35 H           2.8615   11.0964    1.1950 H       1  UNL1        0.0000
     36 H           3.0234   11.5915    2.9090 H       1  UNL1        0.0000
     37 H           7.1793   15.6137    3.7030 H       1  UNL1        0.0000
     38 H           7.5691   16.5589    2.2519 H       1  UNL1        0.0000
     39 H           5.9399   16.6925    2.9855 H       1  UNL1        0.0000
     40 H           8.0456   15.5989   -0.9640 H       1  UNL1        0.0000
     41 H           6.9746   14.4891   -3.1583 H       1  UNL1        0.0000
     42 H           8.2862   12.2063   -3.6561 H       1  UNL1        0.0000
     43 H          10.1473   11.8842   -1.7499 H       1  UNL1        0.0000
     44 H           9.9372   13.9446   -0.0466 H       1  UNL1        0.0000
@<TRIPOS>BOND
     1    42    25    1
     2    41    24    1
     3    25    24    1
     4    25    26    2
     5    32    17    1
     6    31    17    1
     7    24    23    1
     8    24     1    1
     9    17     6    1
    10    17    33    1
    11     3    13    2
    12    26    43    1
    13    26    27    1
    14     6    16    1
    15    23    40    1
    16    23    27    2
    17     1    18    1
    18    16    13    1
    19    16     7    2
    20    27    44    1
    21    13    12    1
    22     9    19    2
    23    12     2    1
    24    12    14    1
    25    18    19    1
    26    18     2    1
    27    18    21    1
    28    19     8    1
    29     4    14    1
    30     4    15    1
    31    35    20    1
    32    14     5    2
    33    21    11    2
    34    21    10    1
    35    34    20    1
    36     8    20    1
    37    29    15    1
    38    20    36    1
    39    10    22    1
    40    15    30    1
    41    15    28    1
    42    38    22    1
    43    22    39    1
    44    22    37    1
