@<TRIPOS>MOLECULE
CSD_code = ROSGEL | q = 1 | S = 0 | Stoichiometry = C24H24CoN6OS(1+) | MND = 6
 57 62 0 0 0
SMALL
GASTEIGER

@<TRIPOS>ATOM
      1 CO          5.5101    1.6692    4.3086 Co.oh   1  UNL1        0.0000
      2 N           4.9000    0.3488    5.4699 N.pl3   1  UNL1        0.0000
      3 N           5.8674   -0.3160    6.1160 N.2     1  UNL1        0.0000
      4 C           7.0625    0.1593    5.8567 C.2     1  UNL1        0.0000
      5 N           7.2095    1.1972    5.0516 N.pl3   1  UNL1        0.0000
      6 H           8.1678    1.4985    4.9227 H       1  UNL1        0.0000
      7 S           8.4544   -0.5806    6.6191 S.3     1  UNL1        0.0000
      8 C           7.6673   -1.8986    7.5786 C.3     1  UNL1        0.0000
      9 H           8.4701   -2.4413    8.0673 H       1  UNL1        0.0000
     10 H           7.1179   -2.5460    6.9037 H       1  UNL1        0.0000
     11 H           7.0002   -1.4574    8.3114 H       1  UNL1        0.0000
     12 O           3.8192    2.0397    3.6106 O.3     1  UNL1        0.0000
     13 C           3.6627    0.0394    5.7035 C.3     1  UNL1        0.0000
     14 H           3.4841   -0.7530    6.4248 H       1  UNL1        0.0000
     15 C           2.5307    0.6465    5.0905 C.ar    1  UNL1        0.0000
     16 C           2.6714    1.6287    4.0694 C.ar    1  UNL1        0.0000
     17 C           1.4959    2.1671    3.5075 C.ar    1  UNL1        0.0000
     18 H           1.6073    2.9082    2.7302 H       1  UNL1        0.0000
     19 C           0.2530    1.7655    3.9298 C.ar    1  UNL1        0.0000
     20 H          -0.6275    2.2009    3.4825 H       1  UNL1        0.0000
     21 C           0.1183    0.8030    4.9311 C.ar    1  UNL1        0.0000
     22 H          -0.8623    0.4938    5.2554 H       1  UNL1        0.0000
     23 C           1.2418    0.2551    5.4950 C.ar    1  UNL1        0.0000
     24 H           1.1527   -0.4925    6.2695 H       1  UNL1        0.0000
     25 N           6.2573    3.0767    3.0823 N.pl3   1  UNL1        0.0000
     26 C           5.7663    3.2144    1.8506 C.3     1  UNL1        0.0000
     27 H           4.9549    2.5537    1.5817 H       1  UNL1        0.0000
     28 C           6.2300    4.1629    0.9552 C.2     1  UNL1        0.0000
     29 H           5.7933    4.2304   -0.0282 H       1  UNL1        0.0000
     30 C           7.2527    5.0128    1.3445 C.2     1  UNL1        0.0000
     31 H           7.6413    5.7601    0.6704 H       1  UNL1        0.0000
     32 C           7.7589    4.8791    2.6281 C.2     1  UNL1        0.0000
     33 H           8.5501    5.5186    2.9850 H       1  UNL1        0.0000
     34 C           7.2322    3.9060    3.4592 C.2     1  UNL1        0.0000
     35 H           7.6086    3.7912    4.4659 H       1  UNL1        0.0000
     36 N           5.1602    3.0169    5.6826 N.pl3   1  UNL1        0.0000
     37 C           5.4900    2.8593    6.9668 C.3     1  UNL1        0.0000
     38 H           6.0378    1.9686    7.2356 H       1  UNL1        0.0000
     39 C           5.1618    3.7768    7.9491 C.2     1  UNL1        0.0000
     40 H           5.4532    3.5897    8.9700 H       1  UNL1        0.0000
     41 C           4.4569    4.9172    7.6009 C.2     1  UNL1        0.0000
     42 H           4.1792    5.6486    8.3437 H       1  UNL1        0.0000
     43 C           4.1196    5.0879    6.2681 C.2     1  UNL1        0.0000
     44 H           3.5730    5.9563    5.9370 H       1  UNL1        0.0000
     45 C           4.4888    4.1229    5.3491 C.2     1  UNL1        0.0000
     46 H           4.2163    4.2334    4.3099 H       1  UNL1        0.0000
     47 N           5.7701    0.2897    2.9384 N.pl3   1  UNL1        0.0000
     48 C           4.7921   -0.5537    2.6027 C.3     1  UNL1        0.0000
     49 H           3.8397   -0.4350    3.0975 H       1  UNL1        0.0000
     50 C           4.9492   -1.5539    1.6585 C.2     1  UNL1        0.0000
     51 H           4.1199   -2.2045    1.4323 H       1  UNL1        0.0000
     52 C           6.1719   -1.7013    1.0258 C.2     1  UNL1        0.0000
     53 H           6.3291   -2.4741    0.2898 H       1  UNL1        0.0000
     54 C           7.1877   -0.8219    1.3667 C.2     1  UNL1        0.0000
     55 H           8.1605   -0.8869    0.9066 H       1  UNL1        0.0000
     56 C           6.9451    0.1513    2.3184 C.2     1  UNL1        0.0000
     57 H           7.7318    0.8373    2.5965 H       1  UNL1        0.0000
@<TRIPOS>BOND
     1    29    28    1
     2    53    52    1
     3    31    30    1
     4    55    54    1
     5    28    30    2
     6    28    26    1
     7    52    54    1
     8    52    50    2
     9    30    32    1
    10    54    56    2
    11    51    50    1
    12    27    26    1
    13    50    48    1
    14    26    25    1
    15    56    57    1
    16    56    47    1
    17    48    47    1
    18    48    49    1
    19    32    33    1
    20    32    34    2
    21    18    17    1
    22    47     1    1
    23    25    34    1
    24    25     1    1
    25    34    35    1
    26    20    19    1
    27    17    19   ar
    28    17    16   ar
    29    12    16    1
    30    12     1    1
    31    19    21   ar
    32    16    15   ar
    33     1     5    1
    34     1     2    1
    35     1    36    1
    36    46    45    1
    37     6     5    1
    38    21    22    1
    39    21    23   ar
    40     5     4    1
    41    15    23   ar
    42    15    13    1
    43    45    36    1
    44    45    43    2
    45     2    13    1
    46     2     3    1
    47    23    24    1
    48    36    37    1
    49    13    14    1
    50     4     3    2
    51     4     7    1
    52    44    43    1
    53    43    41    1
    54     7     8    1
    55    10     8    1
    56    37    38    1
    57    37    39    1
    58     8     9    1
    59     8    11    1
    60    41    39    2
    61    41    42    1
    62    39    40    1
