@<TRIPOS>MOLECULE
CSD_code = ROSGUB | q = 1 | S = 0 | Stoichiometry = C46H45CoP3(1+) | MND = 7
 95 100 0 0 0
SMALL
GASTEIGER

@<TRIPOS>ATOM
      1 CO          3.4273   12.2081   20.6989 Co.oh   1  UNL1        0.0000
      2 P           1.8750   13.2074   19.4100 P.3     2  UNL2        0.0000
      3 P           1.9383   12.1918   22.4441 P.3     2  UNL2        0.0000
      4 P           4.1586   14.2852   21.0683 P.3     2  UNL2        0.0000
      5 C           0.7952   14.2621   20.4750 C.3     2  UNL2        0.0000
      6 H           0.3538   15.0352   19.8395 H       2  UNL2        0.0000
      7 H          -0.0121   13.6052   20.8176 H       2  UNL2        0.0000
      8 C           1.5025   13.9351   22.8900 C.3     2  UNL2        0.0000
      9 H           0.5328   13.9153   23.3953 H       2  UNL2        0.0000
     10 H           2.2437   14.2793   23.6144 H       2  UNL2        0.0000
     11 C           2.8122   15.5103   21.3887 C.3     2  UNL2        0.0000
     12 H           3.1227   16.1688   22.2043 H       2  UNL2        0.0000
     13 H           2.7377   16.1222   20.4864 H       2  UNL2        0.0000
     14 C           1.4337   14.9197   21.7103 C.3     2  UNL2        0.0000
     15 C           0.5242   16.0841   22.1365 C.3     2  UNL2        0.0000
     16 H          -0.5004   15.7422   22.2665 H       2  UNL2        0.0000
     17 H           0.5266   16.8747   21.3889 H       2  UNL2        0.0000
     18 H           0.8617   16.5107   23.0788 H       2  UNL2        0.0000
     19 C           4.8715   11.1096   21.6893 C.3     1  UNL1        0.0000
     20 H           5.4333   11.3595   22.5793 H       1  UNL1        0.0000
     21 C           5.2875   11.4449   20.3883 C.3     1  UNL1        0.0000
     22 H           6.1745   11.9963   20.1190 H       1  UNL1        0.0000
     23 C           4.3715   10.8469   19.4819 C.3     1  UNL1        0.0000
     24 H           4.4417   10.8780   18.4045 H       1  UNL1        0.0000
     25 C           3.4255   10.1448   20.2456 C.3     1  UNL1        0.0000
     26 H           2.6856    9.4800   19.8221 H       1  UNL1        0.0000
     27 C           4.0192    9.8719   21.6033 C.3     1  UNL1        0.0000
     28 H           4.6407    8.9647   21.5853 H       1  UNL1        0.0000
     29 H           3.2914    9.7547   22.4064 H       1  UNL1        0.0000
     30 C           2.3633   14.2777   18.0023 C.ar    2  UNL2        0.0000
     31 C           2.9666   13.6175   16.9330 C.ar    2  UNL2        0.0000
     32 H           3.1042   12.5465   16.9832 H       2  UNL2        0.0000
     33 C           3.3796   14.3088   15.8123 C.ar    2  UNL2        0.0000
     34 H           3.8370   13.7795   14.9899 H       2  UNL2        0.0000
     35 C           3.2072   15.6820   15.7459 C.ar    2  UNL2        0.0000
     36 H           3.5358   16.2296   14.8764 H       2  UNL2        0.0000
     37 C           2.6012   16.3459   16.7967 C.ar    2  UNL2        0.0000
     38 H           2.4519   17.4141   16.7468 H       2  UNL2        0.0000
     39 C           2.1744   15.6507   17.9156 C.ar    2  UNL2        0.0000
     40 H           1.6840   16.2013   18.7042 H       2  UNL2        0.0000
     41 C           0.6206   12.2453   18.4808 C.ar    2  UNL2        0.0000
     42 C           1.0123   11.0617   17.8616 C.ar    2  UNL2        0.0000
     43 H           2.0253   10.7074   17.9801 H       2  UNL2        0.0000
     44 C           0.1175   10.3254   17.1079 C.ar    2  UNL2        0.0000
     45 H           0.4372    9.4071   16.6382 H       2  UNL2        0.0000
     46 C          -1.1866   10.7660   16.9590 C.ar    2  UNL2        0.0000
     47 H          -1.8901   10.1922   16.3758 H       2  UNL2        0.0000
     48 C          -1.5810   11.9501   17.5576 C.ar    2  UNL2        0.0000
     49 H          -2.5933   12.3051   17.4362 H       2  UNL2        0.0000
     50 C          -0.6861   12.6906   18.3096 C.ar    2  UNL2        0.0000
     51 H          -1.0210   13.6158   18.7506 H       2  UNL2        0.0000
     52 C           0.2739   11.4534   22.2800 C.ar    2  UNL2        0.0000
     53 C          -0.0182   10.6710   21.1710 C.ar    2  UNL2        0.0000
     54 H           0.7508   10.4976   20.4347 H       2  UNL2        0.0000
     55 C          -1.2775   10.1216   21.0048 C.ar    2  UNL2        0.0000
     56 H          -1.4914    9.5257   20.1304 H       2  UNL2        0.0000
     57 C          -2.2546   10.3387   21.9601 C.ar    2  UNL2        0.0000
     58 H          -3.2388    9.9140   21.8362 H       2  UNL2        0.0000
     59 C          -1.9632   11.0931   23.0871 C.ar    2  UNL2        0.0000
     60 H          -2.7180   11.2462   23.8439 H       2  UNL2        0.0000
     61 C          -0.7082   11.6476   23.2508 C.ar    2  UNL2        0.0000
     62 H          -0.4884   12.2120   24.1468 H       2  UNL2        0.0000
     63 C           2.4470   11.5471   24.0732 C.ar    2  UNL2        0.0000
     64 C           1.8630   10.4170   24.6390 C.ar    2  UNL2        0.0000
     65 H           1.0422    9.9207   24.1411 H       2  UNL2        0.0000
     66 C           2.3292    9.9242   25.8453 C.ar    2  UNL2        0.0000
     67 H           1.8633    9.0529   26.2803 H       2  UNL2        0.0000
     68 C           3.3893   10.5386   26.4899 C.ar    2  UNL2        0.0000
     69 H           3.7478   10.1519   27.4313 H       2  UNL2        0.0000
     70 C           3.9985   11.6422   25.9141 C.ar    2  UNL2        0.0000
     71 H           4.8391   12.1149   26.4001 H       2  UNL2        0.0000
     72 C           3.5374   12.1352   24.7088 C.ar    2  UNL2        0.0000
     73 H           4.0371   12.9755   24.2479 H       2  UNL2        0.0000
     74 C           5.3618   14.5669   22.4171 C.ar    2  UNL2        0.0000
     75 C           6.6819   14.2016   22.1572 C.ar    2  UNL2        0.0000
     76 H           6.9446   13.8207   21.1804 H       2  UNL2        0.0000
     77 C           7.6603   14.3485   23.1209 C.ar    2  UNL2        0.0000
     78 H           8.6784   14.0657   22.9003 H       2  UNL2        0.0000
     79 C           7.3351   14.8616   24.3665 C.ar    2  UNL2        0.0000
     80 H           8.0968   14.9768   25.1218 H       2  UNL2        0.0000
     81 C           6.0296   15.2343   24.6337 C.ar    2  UNL2        0.0000
     82 H           5.7692   15.6443   25.5982 H       2  UNL2        0.0000
     83 C           5.0473   15.0855   23.6689 C.ar    2  UNL2        0.0000
     84 H           4.0395   15.3930   23.9097 H       2  UNL2        0.0000
     85 C           5.0641   15.1534   19.7426 C.ar    2  UNL2        0.0000
     86 C           5.4500   14.4966   18.5832 C.ar    2  UNL2        0.0000
     87 H           5.2009   13.4538   18.4537 H       2  UNL2        0.0000
     88 C           6.1378   15.1745   17.5922 C.ar    2  UNL2        0.0000
     89 H           6.4319   14.6567   16.6918 H       2  UNL2        0.0000
     90 C           6.4475   16.5128   17.7566 C.ar    2  UNL2        0.0000
     91 H           6.9819   17.0434   16.9838 H       2  UNL2        0.0000
     92 C           6.0789   17.1707   18.9200 C.ar    2  UNL2        0.0000
     93 H           6.3312   18.2116   19.0551 H       2  UNL2        0.0000
     94 C           5.3945   16.4962   19.9123 C.ar    2  UNL2        0.0000
     95 H           5.1246   17.0082   20.8255 H       2  UNL2        0.0000
@<TRIPOS>BOND
     1    36    35    1
     2    34    33    1
     3    35    33   ar
     4    35    37   ar
     5    33    31   ar
     6    47    46    1
     7    45    44    1
     8    89    88    1
     9    38    37    1
    10    37    39   ar
    11    31    32    1
    12    31    30   ar
    13    46    44   ar
    14    46    48   ar
    15    91    90    1
    16    44    42   ar
    17    49    48    1
    18    48    50   ar
    19    88    90   ar
    20    88    86   ar
    21    90    92   ar
    22    42    43    1
    23    42    41   ar
    24    39    30   ar
    25    39    40    1
    26    30     2    1
    27    50    41   ar
    28    50    51    1
    29    24    23    1
    30    87    86    1
    31    41     2    1
    32    86    85   ar
    33    92    93    1
    34    92    94   ar
    35     2     5    1
    36    23    25    1
    37    23    21    1
    38    85    94   ar
    39    85     4    1
    40    26    25    1
    41     6     5    1
    42    94    95    1
    43    22    21    1
    44    56    55    1
    45    25    27    1
    46    21     1    1
    47    21    19    1
    48    54    53    1
    49     5     7    1
    50     5    14    1
    51    13    11    1
    52    55    53   ar
    53    55    57   ar
    54     4    11    1
    55     4    74    1
    56    53    52   ar
    57    76    75    1
    58    11    14    1
    59    11    12    1
    60    17    15    1
    61    28    27    1
    62    27    19    1
    63    27    29    1
    64    19    20    1
    65    14    15    1
    66    14     8    1
    67    58    57    1
    68    57    59   ar
    69    15    16    1
    70    15    18    1
    71    75    74   ar
    72    75    77   ar
    73    52     3    1
    74    52    61   ar
    75    74    83   ar
    76     3     8    1
    77     3    63    1
    78     8     9    1
    79     8    10    1
    80    78    77    1
    81    59    61   ar
    82    59    60    1
    83    77    79   ar
    84    61    62    1
    85    83    84    1
    86    83    81   ar
    87    63    64   ar
    88    63    72   ar
    89    65    64    1
    90    73    72    1
    91    79    81   ar
    92    79    80    1
    93    81    82    1
    94    64    66   ar
    95    72    70   ar
    96    66    67    1
    97    66    68   ar
    98    70    71    1
    99    70    68   ar
   100    68    69    1
