@<TRIPOS>MOLECULE
CSD_code = ROSHAI | q = 1 | S = 0 | Stoichiometry = C55H47CoO2P3(1+) | MND = 5
 108 119 0 0 0
SMALL
GASTEIGER

@<TRIPOS>ATOM
      1 CO         16.3860    3.8837   32.9902 Co.oh   1  UNL1        0.0000
      2 P          15.4145    3.7497   30.9953 P.3     1  UNL1        0.0000
      3 P          17.7813    2.2896   32.4034 P.3     1  UNL1        0.0000
      4 P          17.8063    5.3239   32.1554 P.3     1  UNL1        0.0000
      5 O          15.5149    2.8150   34.1964 O.3     1  UNL1        0.0000
      6 O          15.5407    5.2570   33.8773 O.3     1  UNL1        0.0000
      7 C          18.3517    2.3350   30.6428 C.3     1  UNL1        0.0000
      8 H          19.4246    2.1233   30.6281 H       1  UNL1        0.0000
      9 H          17.8520    1.4977   30.1456 H       1  UNL1        0.0000
     10 C          16.5702    3.7667   29.5484 C.3     1  UNL1        0.0000
     11 H          16.2638    2.9728   28.8614 H       1  UNL1        0.0000
     12 H          16.4041    4.7191   29.0359 H       1  UNL1        0.0000
     13 C          18.6329    4.8573   30.5690 C.3     1  UNL1        0.0000
     14 H          18.5938    5.7178   29.8948 H       1  UNL1        0.0000
     15 H          19.6842    4.6723   30.8069 H       1  UNL1        0.0000
     16 C          18.0695    3.6199   29.8522 C.3     1  UNL1        0.0000
     17 C          18.7986    3.5008   28.5028 C.3     1  UNL1        0.0000
     18 H          18.5681    4.3494   27.8624 H       1  UNL1        0.0000
     19 H          18.5026    2.5931   27.9815 H       1  UNL1        0.0000
     20 H          19.8764    3.4702   28.6472 H       1  UNL1        0.0000
     21 C          14.6764    3.4530   34.9509 C.ar    1  UNL1        0.0000
     22 C          14.6879    4.8509   34.7655 C.ar    1  UNL1        0.0000
     23 C          13.7791    5.7013   35.4733 C.ar    1  UNL1        0.0000
     24 C          12.8826    5.1094   36.3952 C.ar    1  UNL1        0.0000
     25 C          12.8791    3.6682   36.5981 C.ar    1  UNL1        0.0000
     26 C          13.7662    2.8380   35.8709 C.ar    1  UNL1        0.0000
     27 C          13.7660    1.4501   36.0555 C.ar    1  UNL1        0.0000
     28 H          14.4639    0.8559   35.4838 H       1  UNL1        0.0000
     29 C          12.9019    0.8660   36.9499 C.ar    1  UNL1        0.0000
     30 H          12.9026   -0.2037   37.0933 H       1  UNL1        0.0000
     31 C          12.0259    1.6683   37.6747 C.ar    1  UNL1        0.0000
     32 H          11.3466    1.2165   38.3816 H       1  UNL1        0.0000
     33 C          12.0164    3.0358   37.5014 C.ar    1  UNL1        0.0000
     34 H          11.3229    3.6184   38.0857 H       1  UNL1        0.0000
     35 C          13.7876    7.0859   35.2636 C.ar    1  UNL1        0.0000
     36 H          14.4916    7.4933   34.5520 H       1  UNL1        0.0000
     37 C          12.9216    7.8992   35.9535 C.ar    1  UNL1        0.0000
     38 H          12.9264    8.9665   35.7931 H       1  UNL1        0.0000
     39 C          12.0368    7.3337   36.8669 C.ar    1  UNL1        0.0000
     40 H          11.3567    7.9675   37.4155 H       1  UNL1        0.0000
     41 C          12.0193    5.9721   37.0810 C.ar    1  UNL1        0.0000
     42 H          11.3176    5.5786   37.7982 H       1  UNL1        0.0000
     43 C          19.2909    2.3069   33.4224 C.ar    1  UNL1        0.0000
     44 C          19.0970    1.8993   34.7423 C.ar    1  UNL1        0.0000
     45 H          18.1106    1.5729   35.0491 H       1  UNL1        0.0000
     46 C          20.1448    1.9146   35.6406 C.ar    1  UNL1        0.0000
     47 H          19.9889    1.5901   36.6584 H       1  UNL1        0.0000
     48 C          21.3968    2.3502   35.2331 C.ar    1  UNL1        0.0000
     49 H          22.2180    2.3663   35.9329 H       1  UNL1        0.0000
     50 C          21.5931    2.7654   33.9278 C.ar    1  UNL1        0.0000
     51 H          22.5665    3.1070   33.6095 H       1  UNL1        0.0000
     52 C          20.5454    2.7483   33.0229 C.ar    1  UNL1        0.0000
     53 H          20.7249    3.0795   32.0103 H       1  UNL1        0.0000
     54 C          17.3402    0.5268   32.5387 C.ar    1  UNL1        0.0000
     55 C          16.0557    0.1138   32.8655 C.ar    1  UNL1        0.0000
     56 H          15.2950    0.8487   33.0753 H       1  UNL1        0.0000
     57 C          15.7592   -1.2372   32.9323 C.ar    1  UNL1        0.0000
     58 H          14.7586   -1.5524   33.1883 H       1  UNL1        0.0000
     59 C          16.7399   -2.1783   32.6721 C.ar    1  UNL1        0.0000
     60 H          16.5079   -3.2310   32.7249 H       1  UNL1        0.0000
     61 C          18.0260   -1.7694   32.3514 C.ar    1  UNL1        0.0000
     62 H          18.7937   -2.5029   32.1562 H       1  UNL1        0.0000
     63 C          18.3290   -0.4235   32.2857 C.ar    1  UNL1        0.0000
     64 H          19.3348   -0.1044   32.0483 H       1  UNL1        0.0000
     65 C          14.4145    2.2390   30.8374 C.ar    1  UNL1        0.0000
     66 C          13.2477    2.2362   31.6035 C.ar    1  UNL1        0.0000
     67 H          12.9877    3.1215   32.1718 H       1  UNL1        0.0000
     68 C          12.4383    1.1189   31.6407 C.ar    1  UNL1        0.0000
     69 H          11.5377    1.1252   32.2360 H       1  UNL1        0.0000
     70 C          12.7875   -0.0106   30.9151 C.ar    1  UNL1        0.0000
     71 H          12.1563   -0.8855   30.9411 H       1  UNL1        0.0000
     72 C          13.9477   -0.0170   30.1605 C.ar    1  UNL1        0.0000
     73 H          14.2232   -0.8973   29.5994 H       1  UNL1        0.0000
     74 C          14.7665    1.0989   30.1262 C.ar    1  UNL1        0.0000
     75 H          15.6747    1.0634   29.5422 H       1  UNL1        0.0000
     76 C          14.1889    4.9957   30.4774 C.ar    1  UNL1        0.0000
     77 C          13.8599    6.0688   31.2943 C.ar    1  UNL1        0.0000
     78 H          14.3379    6.1757   32.2560 H       1  UNL1        0.0000
     79 C          12.9274    7.0006   30.8716 C.ar    1  UNL1        0.0000
     80 H          12.6758    7.8332   31.5110 H       1  UNL1        0.0000
     81 C          12.3223    6.8628   29.6345 C.ar    1  UNL1        0.0000
     82 H          11.5960    7.5894   29.3037 H       1  UNL1        0.0000
     83 C          12.6419    5.7864   28.8199 C.ar    1  UNL1        0.0000
     84 H          12.1626    5.6746   27.8589 H       1  UNL1        0.0000
     85 C          13.5692    4.8513   29.2371 C.ar    1  UNL1        0.0000
     86 H          13.8087    4.0039   28.6091 H       1  UNL1        0.0000
     87 C          17.1281    6.9853   31.8748 C.ar    1  UNL1        0.0000
     88 C          17.0107    7.8185   32.9860 C.ar    1  UNL1        0.0000
     89 H          17.3903    7.4861   33.9424 H       1  UNL1        0.0000
     90 C          16.4096    9.0570   32.8670 C.ar    1  UNL1        0.0000
     91 H          16.3249    9.6985   33.7317 H       1  UNL1        0.0000
     92 C          15.9141    9.4745   31.6415 C.ar    1  UNL1        0.0000
     93 H          15.4435   10.4413   31.5490 H       1  UNL1        0.0000
     94 C          16.0213    8.6479   30.5361 C.ar    1  UNL1        0.0000
     95 H          15.6326    8.9673   29.5808 H       1  UNL1        0.0000
     96 C          16.6177    7.4050   30.6513 C.ar    1  UNL1        0.0000
     97 H          16.6763    6.7687   29.7802 H       1  UNL1        0.0000
     98 C          19.2039    5.6953   33.2586 C.ar    1  UNL1        0.0000
     99 C          19.1338    5.2855   34.5850 C.ar    1  UNL1        0.0000
    100 H          18.2586    4.7437   34.9282 H       1  UNL1        0.0000
    101 C          20.1727    5.5621   35.4543 C.ar    1  UNL1        0.0000
    102 H          20.1162    5.2394   36.4827 H       1  UNL1        0.0000
    103 C          21.2843    6.2528   35.0010 C.ar    1  UNL1        0.0000
    104 H          22.0989    6.4660   35.6759 H       1  UNL1        0.0000
    105 C          21.3489    6.6820   33.6843 C.ar    1  UNL1        0.0000
    106 H          22.2093    7.2347   33.3383 H       1  UNL1        0.0000
    107 C          20.3109    6.4111   32.8122 C.ar    1  UNL1        0.0000
    108 H          20.3543    6.7633   31.7909 H       1  UNL1        0.0000
@<TRIPOS>BOND
     1    84    83    1
     2    18    17    1
     3    19    17    1
     4    17    20    1
     5    17    16    1
     6    86    85    1
     7    83    85   ar
     8    83    81   ar
     9    11    10    1
    10    12    10    1
    11    85    76   ar
    12    82    81    1
    13    75    74    1
    14    10    16    1
    15    10     2    1
    16    95    94    1
    17    73    72    1
    18    81    79   ar
    19    97    96    1
    20    16    13    1
    21    16     7    1
    22    14    13    1
    23    74    72   ar
    24    74    65   ar
    25     9     7    1
    26    72    70   ar
    27    76     2    1
    28    76    77   ar
    29    94    96   ar
    30    94    92   ar
    31    13    15    1
    32    13     4    1
    33     8     7    1
    34     7     3    1
    35    96    87   ar
    36    65     2    1
    37    65    66   ar
    38    79    77   ar
    39    79    80    1
    40    70    71    1
    41    70    68   ar
    42     2     1    1
    43    77    78    1
    44    93    92    1
    45    66    68   ar
    46    66    67    1
    47    68    69    1
    48    92    90   ar
    49   108   107    1
    50    87     4    1
    51    87    88   ar
    52    53    52    1
    53    64    63    1
    54     4     1    1
    55     4    98    1
    56    62    61    1
    57    63    61   ar
    58    63    54   ar
    59    61    59   ar
    60     3    54    1
    61     3     1    1
    62     3    43    1
    63    54    55   ar
    64    59    60    1
    65    59    57   ar
    66   107    98   ar
    67   107   105   ar
    68    55    57   ar
    69    55    56    1
    70    90    88   ar
    71    90    91    1
    72    57    58    1
    73    88    89    1
    74     1     6    1
    75     1     5    1
    76    52    43   ar
    77    52    50   ar
    78    98    99   ar
    79   106   105    1
    80    43    44   ar
    81    51    50    1
    82   105   103   ar
    83     6    22    1
    84    50    48   ar
    85     5    21    1
    86    36    35    1
    87    99   100    1
    88    99   101   ar
    89    44    45    1
    90    44    46   ar
    91    22    21   ar
    92    22    23   ar
    93    21    26   ar
    94   103   101   ar
    95   103   104    1
    96    48    46   ar
    97    48    49    1
    98    35    23   ar
    99    35    37   ar
   100   101   102    1
   101    23    24   ar
   102    28    27    1
   103    46    47    1
   104    38    37    1
   105    26    27   ar
   106    26    25   ar
   107    37    39   ar
   108    27    29   ar
   109    24    25   ar
   110    24    41   ar
   111    25    33   ar
   112    39    41   ar
   113    39    40    1
   114    29    30    1
   115    29    31   ar
   116    41    42    1
   117    33    31   ar
   118    33    34    1
   119    31    32    1
