@<TRIPOS>MOLECULE
CSD_code = RUTTIJ | q = 0 | S = 0 | Stoichiometry = C41H39ClCoP3 | MND = 4
 85 92 0 0 0
SMALL
GASTEIGER

@<TRIPOS>ATOM
      1 CO         19.3447    0.7408    6.0792 Co.oh   1  UNL1        0.0000
      2 P          21.5938    1.1582    5.9788 P.3     1  UNL1        0.0000
      3 P          19.4590    0.0686    4.0516 P.3     1  UNL1        0.0000
      4 P          18.6304    2.6857    5.3467 P.3     1  UNL1        0.0000
      5 CL         18.9329    0.7406    8.1244 Cl      1  UNL1        0.0000
      6 C          22.0049    1.7769    4.2776 C.3     1  UNL1        0.0000
      7 H          22.8417    2.4768    4.3707 H       1  UNL1        0.0000
      8 H          22.3384    0.9113    3.6973 H       1  UNL1        0.0000
      9 C          19.9643    1.3700    2.8543 C.3     1  UNL1        0.0000
     10 H          20.4873    0.9194    2.0053 H       1  UNL1        0.0000
     11 H          19.0458    1.8443    2.4914 H       1  UNL1        0.0000
     12 C          20.0338    3.4058    4.3748 C.3     1  UNL1        0.0000
     13 H          19.6275    4.2038    3.7455 H       1  UNL1        0.0000
     14 H          20.7053    3.8570    5.1125 H       1  UNL1        0.0000
     15 C          20.8545    2.4401    3.5014 C.3     1  UNL1        0.0000
     16 C          21.4857    3.2683    2.3694 C.3     1  UNL1        0.0000
     17 H          22.1735    2.6593    1.7851 H       1  UNL1        0.0000
     18 H          22.0402    4.1120    2.7761 H       1  UNL1        0.0000
     19 H          20.7176    3.6523    1.7000 H       1  UNL1        0.0000
     20 C          23.9638   -0.4155    5.4595 C.ar    1  UNL1        0.0000
     21 C          24.9085   -1.3312    5.8907 C.ar    1  UNL1        0.0000
     22 C          24.8955   -1.7946    7.1945 C.ar    1  UNL1        0.0000
     23 C          23.9269   -1.3412    8.0780 C.ar    1  UNL1        0.0000
     24 C          22.9807   -0.4335    7.6499 C.ar    1  UNL1        0.0000
     25 C          22.9941    0.0482    6.3397 C.ar    1  UNL1        0.0000
     26 H          23.9988   -0.0730    4.4358 H       1  UNL1        0.0000
     27 H          25.6605   -1.6852    5.1996 H       1  UNL1        0.0000
     28 H          25.6353   -2.5108    7.5212 H       1  UNL1        0.0000
     29 H          23.9094   -1.7038    9.0955 H       1  UNL1        0.0000
     30 H          22.2049   -0.0840    8.3207 H       1  UNL1        0.0000
     31 C          21.2339    3.3112    7.7289 C.ar    1  UNL1        0.0000
     32 C          21.6354    4.4249    8.4458 C.ar    1  UNL1        0.0000
     33 C          22.9600    4.8254    8.4172 C.ar    1  UNL1        0.0000
     34 C          23.8846    4.1051    7.6759 C.ar    1  UNL1        0.0000
     35 C          23.4851    2.9966    6.9537 C.ar    1  UNL1        0.0000
     36 C          22.1509    2.5972    6.9692 C.ar    1  UNL1        0.0000
     37 H          20.2052    2.9804    7.7687 H       1  UNL1        0.0000
     38 H          20.9106    4.9752    9.0277 H       1  UNL1        0.0000
     39 H          23.2778    5.6928    8.9776 H       1  UNL1        0.0000
     40 H          24.9218    4.4089    7.6637 H       1  UNL1        0.0000
     41 H          24.2118    2.4305    6.3857 H       1  UNL1        0.0000
     42 C          17.3764   -1.6706    3.9717 C.ar    1  UNL1        0.0000
     43 C          16.3116   -2.3758    3.4481 C.ar    1  UNL1        0.0000
     44 C          15.9341   -2.1696    2.1303 C.ar    1  UNL1        0.0000
     45 C          16.6283   -1.2648    1.3458 C.ar    1  UNL1        0.0000
     46 C          17.6996   -0.5597    1.8672 C.ar    1  UNL1        0.0000
     47 C          18.0772   -0.7558    3.1886 C.ar    1  UNL1        0.0000
     48 H          17.6736   -1.8058    5.0065 H       1  UNL1        0.0000
     49 H          15.7712   -3.0803    4.0634 H       1  UNL1        0.0000
     50 H          15.0978   -2.7132    1.7157 H       1  UNL1        0.0000
     51 H          16.3334   -1.1047    0.3186 H       1  UNL1        0.0000
     52 H          18.2269    0.1421    1.2385 H       1  UNL1        0.0000
     53 C          21.2542   -1.6682    2.6583 C.ar    1  UNL1        0.0000
     54 C          22.1639   -2.7097    2.6324 C.ar    1  UNL1        0.0000
     55 C          22.4905   -3.3831    3.7988 C.ar    1  UNL1        0.0000
     56 C          21.8935   -3.0257    4.9958 C.ar    1  UNL1        0.0000
     57 C          20.9935   -1.9772    5.0253 C.ar    1  UNL1        0.0000
     58 C          20.6815   -1.2788    3.8635 C.ar    1  UNL1        0.0000
     59 H          20.9906   -1.1658    1.7374 H       1  UNL1        0.0000
     60 H          22.6184   -3.0010    1.6960 H       1  UNL1        0.0000
     61 H          23.2058   -4.1918    3.7710 H       1  UNL1        0.0000
     62 H          22.1370   -3.5550    5.9050 H       1  UNL1        0.0000
     63 H          20.5248   -1.6814    5.9603 H       1  UNL1        0.0000
     64 C          16.3525    1.6281    4.2370 C.ar    1  UNL1        0.0000
     65 C          15.2585    1.5550    3.3947 C.ar    1  UNL1        0.0000
     66 C          15.0186    2.5772    2.4926 C.ar    1  UNL1        0.0000
     67 C          15.8579    3.6800    2.4562 C.ar    1  UNL1        0.0000
     68 C          16.9495    3.7554    3.3015 C.ar    1  UNL1        0.0000
     69 C          17.2185    2.7141    4.1829 C.ar    1  UNL1        0.0000
     70 H          16.5493    0.8418    4.9558 H       1  UNL1        0.0000
     71 H          14.5986    0.7011    3.4387 H       1  UNL1        0.0000
     72 H          14.1715    2.5233    1.8246 H       1  UNL1        0.0000
     73 H          15.6565    4.4879    1.7671 H       1  UNL1        0.0000
     74 H          17.5841    4.6306    3.2782 H       1  UNL1        0.0000
     75 C          17.0662    3.8175    7.2427 C.ar    1  UNL1        0.0000
     76 C          16.5855    4.7793    8.1080 C.ar    1  UNL1        0.0000
     77 C          17.1658    6.0382    8.1285 C.ar    1  UNL1        0.0000
     78 C          18.2237    6.3238    7.2828 C.ar    1  UNL1        0.0000
     79 C          18.7067    5.3629    6.4107 C.ar    1  UNL1        0.0000
     80 C          18.1246    4.1016    6.3814 C.ar    1  UNL1        0.0000
     81 H          16.6432    2.8212    7.2344 H       1  UNL1        0.0000
     82 H          15.7671    4.5488    8.7740 H       1  UNL1        0.0000
     83 H          16.7993    6.7931    8.8087 H       1  UNL1        0.0000
     84 H          18.6816    7.3028    7.3029 H       1  UNL1        0.0000
     85 H          19.5378    5.6089    5.7670 H       1  UNL1        0.0000
@<TRIPOS>BOND
     1    51    45    1
     2    52    46    1
     3    45    46   ar
     4    45    44   ar
     5    60    54    1
     6    19    16    1
     7    50    44    1
     8    59    53    1
     9    73    67    1
    10    17    16    1
    11    72    66    1
    12    46    47   ar
    13    10     9    1
    14    44    43   ar
    15    16    18    1
    16    16    15    1
    17    67    66   ar
    18    67    68   ar
    19    11     9    1
    20    66    65   ar
    21    54    53   ar
    22    54    55   ar
    23    53    58   ar
    24     9    15    1
    25     9     3    1
    26    47    42   ar
    27    47     3    1
    28    74    68    1
    29    68    69   ar
    30    65    71    1
    31    65    64   ar
    32    43    42   ar
    33    43    49    1
    34    15     6    1
    35    15    12    1
    36     8     6    1
    37    13    12    1
    38    61    55    1
    39    55    56   ar
    40    58     3    1
    41    58    57   ar
    42    42    48    1
    43     3     1    1
    44    69    64   ar
    45    69     4    1
    46    64    70    1
    47     6     7    1
    48     6     2    1
    49    12    14    1
    50    12     4    1
    51    26    20    1
    52    56    57   ar
    53    56    62    1
    54    57    63    1
    55    27    21    1
    56     4     1    1
    57     4    80    1
    58    20    21   ar
    59    20    25   ar
    60    85    79    1
    61    21    22   ar
    62     2     1    1
    63     2    25    1
    64     2    36    1
    65     1     5    1
    66    25    24   ar
    67    80    79   ar
    68    80    75   ar
    69    41    35    1
    70    79    78   ar
    71    35    36   ar
    72    35    34   ar
    73    36    31   ar
    74    22    28    1
    75    22    23   ar
    76    81    75    1
    77    75    76   ar
    78    78    84    1
    79    78    77   ar
    80    24    23   ar
    81    24    30    1
    82    40    34    1
    83    34    33   ar
    84    31    37    1
    85    31    32   ar
    86    23    29    1
    87    76    77   ar
    88    76    82    1
    89    77    83    1
    90    33    32   ar
    91    33    39    1
    92    32    38    1
