@<TRIPOS>MOLECULE
CSD_code = RUYYOA | q = 1 | S = 0 | Stoichiometry = C18H18CoN4O4S2(1+) | MND = 6
 47 54 0 0 0
SMALL
GASTEIGER

@<TRIPOS>ATOM
      1 CO          7.8118    3.8896    9.3931 Co.oh   1  UNL1        0.0000
      2 S           5.4182    1.1382    6.8554 S.3     1  UNL1        0.0000
      3 C           6.5754    1.6580    8.1781 C.3     1  UNL1        0.0000
      4 H           7.3367    0.8734    8.2488 H       1  UNL1        0.0000
      5 N           7.1632    2.9285    7.7354 N.4     1  UNL1        0.0000
      6 H           7.8368    2.7154    6.9971 H       1  UNL1        0.0000
      7 C           6.0870    3.7469    7.1224 C.3     1  UNL1        0.0000
      8 H           6.5333    4.4143    6.3781 H       1  UNL1        0.0000
      9 C           5.0027    2.8720    6.4946 C.3     1  UNL1        0.0000
     10 H           4.9505    2.9742    5.4127 H       1  UNL1        0.0000
     11 H           4.0290    3.1215    6.9226 H       1  UNL1        0.0000
     12 N           6.5422    2.7787   10.2907 N.pl3   1  UNL1        0.0000
     13 C           5.9298    1.8657    9.5237 C.3     1  UNL1        0.0000
     14 C           4.8041    1.1826    9.9465 C.2     1  UNL1        0.0000
     15 H           4.3429    0.4591    9.2925 H       1  UNL1        0.0000
     16 C           4.2821    1.4685   11.1993 C.2     1  UNL1        0.0000
     17 H           3.3950    0.9632   11.5472 H       1  UNL1        0.0000
     18 C           4.9087    2.4273   11.9795 C.2     1  UNL1        0.0000
     19 H           4.5272    2.6942   12.9513 H       1  UNL1        0.0000
     20 C           6.0333    3.0665   11.4872 C.2     1  UNL1        0.0000
     21 H           6.5347    3.8449   12.0450 H       1  UNL1        0.0000
     22 C           5.4920    4.6829    8.2332 C.2     1  UNL1        0.0000
     23 O           6.3511    4.9973    9.1307 O.3     1  UNL1        0.0000
     24 O           4.3529    5.0605    8.1700 O.2     1  UNL1        0.0000
     25 S          12.0740    2.6335    9.3806 S.3     1  UNL1        0.0000
     26 C          10.4448    3.1292    8.7026 C.3     1  UNL1        0.0000
     27 H          10.3143    2.5680    7.7708 H       1  UNL1        0.0000
     28 N           9.4446    2.7354    9.7027 N.4     1  UNL1        0.0000
     29 H           9.3444    1.7195    9.6544 H       1  UNL1        0.0000
     30 C           9.9844    3.0580   11.0472 C.3     1  UNL1        0.0000
     31 H           9.5400    2.3748   11.7781 H       1  UNL1        0.0000
     32 C          11.5098    2.9755   11.0760 C.3     1  UNL1        0.0000
     33 H          11.8781    2.1703   11.7083 H       1  UNL1        0.0000
     34 H          11.9267    3.9224   11.4267 H       1  UNL1        0.0000
     35 N           9.0518    5.0664    8.5376 N.pl3   1  UNL1        0.0000
     36 C          10.3060    4.6052    8.4324 C.3     1  UNL1        0.0000
     37 C          11.3687    5.4262    8.1025 C.2     1  UNL1        0.0000
     38 H          12.3619    5.0106    8.0337 H       1  UNL1        0.0000
     39 C          11.1283    6.7761    7.8929 C.2     1  UNL1        0.0000
     40 H          11.9414    7.4424    7.6516 H       1  UNL1        0.0000
     41 C           9.8323    7.2500    8.0212 C.2     1  UNL1        0.0000
     42 H           9.6025    8.2940    7.8849 H       1  UNL1        0.0000
     43 C           8.8211    6.3648    8.3524 C.2     1  UNL1        0.0000
     44 H           7.8020    6.6946    8.4976 H       1  UNL1        0.0000
     45 C           9.4823    4.4918   11.4431 C.2     1  UNL1        0.0000
     46 O           8.3440    4.7785   10.9285 O.3     1  UNL1        0.0000
     47 O          10.1274    5.1841   12.1840 O.2     1  UNL1        0.0000
@<TRIPOS>BOND
     1    10     9    1
     2     8     7    1
     3     9     2    1
     4     9    11    1
     5     9     7    1
     6     2     3    1
     7     6     5    1
     8     7     5    1
     9     7    22    1
    10    40    39    1
    11     5     3    1
    12     5     1    1
    13    27    26    1
    14    42    41    1
    15    39    41    1
    16    39    37    2
    17    41    43    2
    18    38    37    1
    19    37    36    1
    20    24    22    2
    21     3     4    1
    22     3    13    1
    23    22    23    1
    24    43    44    1
    25    43    35    1
    26    36    35    1
    27    36    26    1
    28    35     1    1
    29    26    25    1
    30    26    28    1
    31    23     1    1
    32    15    14    1
    33    25    32    1
    34     1    28    1
    35     1    12    1
    36     1    46    1
    37    13    14    1
    38    13    12    1
    39    29    28    1
    40    28    30    1
    41    14    16    2
    42    12    20    1
    43    46    45    1
    44    30    32    1
    45    30    45    1
    46    30    31    1
    47    32    34    1
    48    32    33    1
    49    16    17    1
    50    16    18    1
    51    45    47    2
    52    20    18    2
    53    20    21    1
    54    18    19    1
