@<TRIPOS>MOLECULE
CSD_code = SADNUI | q = 0 | S = 0 | Stoichiometry = C28H18CoN7O5 | MND = 6
 59 67 0 0 0
SMALL
GASTEIGER

@<TRIPOS>ATOM
      1 CO          0.9199   12.7387    8.7702 Co.oh   1  UNL1        0.0000
      2 C           2.3265   10.2700    8.8501 C.2     1  UNL1        0.0000
      3 C           3.1352    9.2832    9.4370 C.2     1  UNL1        0.0000
      4 H           3.3417    8.3809    8.8830 H       1  UNL1        0.0000
      5 C           3.6123    9.4539   10.7099 C.2     1  UNL1        0.0000
      6 H           4.2091    8.6932   11.1895 H       1  UNL1        0.0000
      7 C           3.2658   10.6182   11.4152 C.ar    1  UNL1        0.0000
      8 C           2.4680   11.5687   10.7467 C.ar    1  UNL1        0.0000
      9 C           2.0122   12.7289   11.4460 C.ar    1  UNL1        0.0000
     10 C           0.7154   14.6183   11.4099 C.2     1  UNL1        0.0000
     11 C           1.0086   14.8831   12.7609 C.2     1  UNL1        0.0000
     12 H           0.5572   15.7499   13.2150 H       1  UNL1        0.0000
     13 C           1.8329   14.0365   13.4537 C.2     1  UNL1        0.0000
     14 H           2.0640   14.2103   14.4945 H       1  UNL1        0.0000
     15 C           2.3641   12.9126   12.8007 C.ar    1  UNL1        0.0000
     16 C           3.1962   11.9510   13.4349 C.ar    1  UNL1        0.0000
     17 H           3.4540   12.1064   14.4722 H       1  UNL1        0.0000
     18 C           3.6317   10.8525   12.7691 C.ar    1  UNL1        0.0000
     19 H           4.2413   10.1111   13.2642 H       1  UNL1        0.0000
     20 C           1.7467   10.0470    7.5459 C.2     1  UNL1        0.0000
     21 H           1.8257    9.0564    7.1039 H       1  UNL1        0.0000
     22 C          -1.2155   10.9524   10.1397 C.2     1  UNL1        0.0000
     23 C          -2.5715   10.6049   10.3429 C.2     1  UNL1        0.0000
     24 H          -2.7858    9.8165   11.0484 H       1  UNL1        0.0000
     25 C          -3.5796   11.2426    9.6706 C.2     1  UNL1        0.0000
     26 H          -4.6152   10.9709    9.8190 H       1  UNL1        0.0000
     27 C          -3.2430   12.2797    8.7767 C.ar    1  UNL1        0.0000
     28 C          -1.4486   13.5730    7.7595 C.ar    1  UNL1        0.0000
     29 C           0.4213   14.7096    6.9433 C.2     1  UNL1        0.0000
     30 C          -0.4213   15.5264    6.1600 C.2     1  UNL1        0.0000
     31 H           0.0247   16.2894    5.5405 H       1  UNL1        0.0000
     32 C          -1.7816   15.3539    6.1897 C.2     1  UNL1        0.0000
     33 H          -2.4291   15.9789    5.5938 H       1  UNL1        0.0000
     34 C          -2.3504   14.3438    7.0125 C.ar    1  UNL1        0.0000
     35 C          -3.7283   14.0452    7.1647 C.ar    1  UNL1        0.0000
     36 H          -4.4455   14.6195    6.5969 H       1  UNL1        0.0000
     37 C          -4.1520   13.0579    8.0094 C.ar    1  UNL1        0.0000
     38 H          -5.2070   12.8471    8.1058 H       1  UNL1        0.0000
     39 C          -1.8720   12.5490    8.6343 C.ar    1  UNL1        0.0000
     40 C          -0.1442   10.3954   11.1318 C.2     1  UNL1        0.0000
     41 C           1.8274   14.7099    7.0800 C.3     1  UNL1        0.0000
     42 H           2.4918   15.4611    6.6764 H       1  UNL1        0.0000
     43 C          -0.1681   15.4944   10.6686 C.2     1  UNL1        0.0000
     44 H          -0.3733   15.2107    9.6310 H       1  UNL1        0.0000
     45 N           2.0238   11.4074    9.4877 N.pl3   1  UNL1        0.0000
     46 N           1.2229   13.5735   10.7685 N.pl3   1  UNL1        0.0000
     47 N           1.1320   11.0022    6.9703 N.2     1  UNL1        0.0000
     48 N          -0.6778   16.5273   11.1977 N.2     1  UNL1        0.0000
     49 N          -0.1172   13.7512    7.7419 N.pl3   1  UNL1        0.0000
     50 N          -0.8741   11.8965    9.2814 N.pl3   1  UNL1        0.0000
     51 N           2.2789   13.7132    7.8040 N.3     1  UNL1        0.0000
     52 O           0.5542   10.7006    5.7523 O.2     1  UNL1        0.0000
     53 H           0.1472   11.5266    5.4544 H       1  UNL1        0.0000
     54 O          -1.4987   17.3008   10.4672 O.2     1  UNL1        0.0000
     55 H          -1.6271   16.9519    9.5600 H       1  UNL1        0.0000
     56 O          -0.0573   11.1828   12.0842 O.co2   1  UNL1        0.0000
     57 O           0.4336    9.3486   10.8734 O.co2   1  UNL1        0.0000
     58 O           3.6486   13.7824    8.0628 O.3     1  UNL1        0.0000
     59 H           3.9033   12.9258    8.4311 H       1  UNL1        0.0000
@<TRIPOS>BOND
     1    53    52    1
     2    31    30    1
     3    33    32    1
     4    52    47    1
     5    30    32    1
     6    30    29    2
     7    32    34    2
     8    36    35    1
     9    42    41    1
    10    29    41    1
    11    29    49    1
    12    47    20    2
    13    34    35   ar
    14    34    28   ar
    15    41    51    1
    16    21    20    1
    17    35    37   ar
    18    20     2    1
    19    49    28    1
    20    49     1    1
    21    28    39   ar
    22    51    58    1
    23    51     1    1
    24    37    38    1
    25    37    27   ar
    26    58    59    1
    27    39    27   ar
    28    39    50    1
    29     1    50    1
    30     1    45    1
    31     1    46    1
    32    27    25    2
    33     2     3    2
    34     2    45    1
    35     4     3    1
    36    50    22    1
    37     3     5    1
    38    45     8    1
    39    55    54    1
    40    44    43    1
    41    25    26    1
    42    25    23    1
    43    22    23    2
    44    22    40    1
    45    23    24    1
    46    54    48    1
    47    43    48    2
    48    43    10    1
    49     5     6    1
    50     5     7    2
    51     8     7   ar
    52     8     9   ar
    53    46    10    1
    54    46     9    1
    55    57    40   ar
    56    40    56   ar
    57    10    11    2
    58     7    18   ar
    59     9    15   ar
    60    11    12    1
    61    11    13    1
    62    18    19    1
    63    18    16   ar
    64    15    16   ar
    65    15    13    2
    66    16    17    1
    67    13    14    1
