@<TRIPOS>MOLECULE
CSD_code = SIDGAO | q = 1 | S = 0 | Stoichiometry = C24H40CoN10S2(1+) | MND = 6
 77 82 0 0 0
SMALL
GASTEIGER

@<TRIPOS>ATOM
      1 CO          1.3944    1.8958   11.3695 Co.oh   1  UNL1        0.0000
      2 S           1.2899   -0.1606   10.4363 S.3     1  UNL1        0.0000
      3 S           1.5713    2.8166    9.3138 S.3     1  UNL1        0.0000
      4 N           1.1539    3.6591   12.1215 N.pl3   1  UNL1        0.0000
      5 N           1.8158    4.7478   12.5284 N.3     1  UNL1        0.0000
      6 H           2.8240    4.7882   12.5092 H       1  UNL1        0.0000
      7 N          -0.4574    1.8418   11.3565 N.pl3   1  UNL1        0.0000
      8 N          -1.1494    0.8181   10.9124 N.2     1  UNL1        0.0000
      9 N          -1.0844   -1.2466    9.9293 N.pl3   1  UNL1        0.0000
     10 N           1.5753    1.0661   13.1070 N.pl3   1  UNL1        0.0000
     11 N           0.8793    0.5222   14.1113 N.3     1  UNL1        0.0000
     12 H          -0.1280    0.4668   14.0837 H       1  UNL1        0.0000
     13 N           3.2460    1.9533   11.4011 N.pl3   1  UNL1        0.0000
     14 N           3.9719    2.4537   10.4276 N.2     1  UNL1        0.0000
     15 N           3.9813    3.3698    8.3322 N.pl3   1  UNL1        0.0000
     16 C           1.4465    7.0389   13.4050 C.3     1  UNL1        0.0000
     17 H           2.0036    7.5566   12.6251 H       1  UNL1        0.0000
     18 H           2.1038    6.9147   14.2644 H       1  UNL1        0.0000
     19 H           0.6026    7.6562   13.6963 H       1  UNL1        0.0000
     20 C           0.9664    5.7257   12.9169 C.3     1  UNL1        0.0000
     21 C          -0.3112    5.2328   12.7527 C.2     1  UNL1        0.0000
     22 H          -1.2322    5.7359   12.9578 H       1  UNL1        0.0000
     23 C          -0.1526    3.9317   12.2451 C.2     1  UNL1        0.0000
     24 C          -1.0437    2.9004   11.8270 C.3     1  UNL1        0.0000
     25 H          -2.1194    2.9939   11.8627 H       1  UNL1        0.0000
     26 C          -0.4488   -0.1913   10.4240 C.2     1  UNL1        0.0000
     27 C           1.1746   -0.5931   16.3072 C.3     1  UNL1        0.0000
     28 H           0.4980    0.0718   16.8424 H       1  UNL1        0.0000
     29 H           1.9968   -0.8582   16.9644 H       1  UNL1        0.0000
     30 H           0.6265   -1.4993   16.0521 H       1  UNL1        0.0000
     31 C           1.6962    0.0615   15.0855 C.3     1  UNL1        0.0000
     32 C           2.9878    0.3306   14.6834 C.2     1  UNL1        0.0000
     33 H           3.8914    0.1024   15.2075 H       1  UNL1        0.0000
     34 C           2.8712    0.9597   13.4318 C.2     1  UNL1        0.0000
     35 C           3.7955    1.4664   12.4717 C.3     1  UNL1        0.0000
     36 H           4.8673    1.4293   12.6020 H       1  UNL1        0.0000
     37 C           3.3084    2.8809    9.3669 C.2     1  UNL1        0.0000
     38 C          -0.3702   -2.3830    9.3925 C.3     1  UNL1        0.0000
     39 H           0.5625   -2.0357    8.9395 H       1  UNL1        0.0000
     40 H          -0.9870   -2.8362    8.6141 H       1  UNL1        0.0000
     41 C          -0.0534   -3.4180   10.4765 C.3     1  UNL1        0.0000
     42 H           0.5802   -2.9521   11.2336 H       1  UNL1        0.0000
     43 H          -0.9818   -3.7327   10.9578 H       1  UNL1        0.0000
     44 C           0.6568   -4.6278    9.8856 C.3     1  UNL1        0.0000
     45 H           0.0345   -5.1097    9.1355 H       1  UNL1        0.0000
     46 H           0.8783   -5.3529   10.6637 H       1  UNL1        0.0000
     47 H           1.5915   -4.3291    9.4180 H       1  UNL1        0.0000
     48 C           5.9667    4.6788    8.9912 C.3     1  UNL1        0.0000
     49 H           5.6122    4.7318   10.0220 H       1  UNL1        0.0000
     50 H           5.5722    5.5427    8.4521 H       1  UNL1        0.0000
     51 C           5.4310    3.3927    8.3572 C.3     1  UNL1        0.0000
     52 H           5.7796    2.5323    8.9313 H       1  UNL1        0.0000
     53 H           5.7896    3.3052    7.3301 H       1  UNL1        0.0000
     54 C           7.4887    4.7083    8.9654 C.3     1  UNL1        0.0000
     55 H           7.8957    3.8604    9.5106 H       1  UNL1        0.0000
     56 H           7.8578    5.6216    9.4237 H       1  UNL1        0.0000
     57 H           7.8555    4.6670    7.9429 H       1  UNL1        0.0000
     58 C          -2.5337   -1.2612    9.8762 C.3     1  UNL1        0.0000
     59 H          -2.9163   -0.7073   10.7352 H       1  UNL1        0.0000
     60 H          -2.8652   -2.2993    9.9436 H       1  UNL1        0.0000
     61 C          -3.0564   -0.6223    8.5870 C.3     1  UNL1        0.0000
     62 H          -2.7148    0.4133    8.5496 H       1  UNL1        0.0000
     63 H          -2.6388   -1.1466    7.7253 H       1  UNL1        0.0000
     64 C          -4.5769   -0.6709    8.5298 C.3     1  UNL1        0.0000
     65 H          -4.9299   -1.6992    8.5548 H       1  UNL1        0.0000
     66 H          -4.9342   -0.2093    7.6137 H       1  UNL1        0.0000
     67 H          -5.0084   -0.1384    9.3737 H       1  UNL1        0.0000
     68 C           3.0566    2.7479    6.1289 C.3     1  UNL1        0.0000
     69 H           2.4237    1.9870    6.5880 H       1  UNL1        0.0000
     70 H           4.0055    2.2796    5.8598 H       1  UNL1        0.0000
     71 C           3.3107    3.8615    7.1493 C.3     1  UNL1        0.0000
     72 H           2.3563    4.3075    7.4432 H       1  UNL1        0.0000
     73 H           3.9354    4.6392    6.7048 H       1  UNL1        0.0000
     74 C           2.3801    3.2983    4.8813 C.3     1  UNL1        0.0000
     75 H           3.0056    4.0492    4.4043 H       1  UNL1        0.0000
     76 H           1.4264    3.7547    5.1348 H       1  UNL1        0.0000
     77 H           2.1995    2.4997    4.1674 H       1  UNL1        0.0000
@<TRIPOS>BOND
     1    77    74    1
     2    75    74    1
     3    74    76    1
     4    74    68    1
     5    70    68    1
     6    68    69    1
     7    68    71    1
     8    73    71    1
     9    71    72    1
    10    71    15    1
    11    53    51    1
    12    66    64    1
    13    63    61    1
    14    57    54    1
    15    15    51    1
    16    15    37    1
    17    51    52    1
    18    51    48    1
    19    50    48    1
    20    64    65    1
    21    64    61    1
    22    64    67    1
    23    62    61    1
    24    61    58    1
    25    40    38    1
    26    39    38    1
    27    54    48    1
    28    54    56    1
    29    54    55    1
    30    48    49    1
    31    45    44    1
    32     3    37    1
    33     3     1    1
    34    37    14    2
    35    38     9    1
    36    38    41    1
    37    47    44    1
    38    58     9    1
    39    58    60    1
    40    58    59    1
    41    44    41    1
    42    44    46    1
    43     9    26    1
    44    26     2    1
    45    26     8    2
    46    14    13    1
    47     2     1    1
    48    41    43    1
    49    41    42    1
    50     8     7    1
    51     7     1    1
    52     7    24    1
    53     1    13    1
    54     1     4    1
    55     1    10    1
    56    13    35    1
    57    24    25    1
    58    24    23    1
    59     4    23    1
    60     4     5    1
    61    23    21    2
    62    35    36    1
    63    35    34    1
    64     6     5    1
    65     5    20    1
    66    17    16    1
    67    21    20    1
    68    21    22    1
    69    20    16    1
    70    10    34    1
    71    10    11    1
    72    16    19    1
    73    16    18    1
    74    34    32    2
    75    12    11    1
    76    11    31    1
    77    32    31    1
    78    32    33    1
    79    31    27    1
    80    30    27    1
    81    27    28    1
    82    27    29    1
