@<TRIPOS>MOLECULE
CSD_code = SIHTOV | q = 1 | S = 0 | Stoichiometry = C27H39BCoN6O(1+) | MND = 4
 75 80 0 0 0
SMALL
GASTEIGER

@<TRIPOS>ATOM
      1 CO          9.1833    8.8432    9.9444 Co.oh   1  UNL1        0.0000
      2 O          10.0592    7.4589   10.5291 O.3     1  UNL1        0.0000
      3 H           9.8691    6.8859   11.2730 H       1  UNL1        0.0000
      4 N           6.4860    8.8490   10.4643 N.pl3   1  UNL1        0.0000
      5 N           6.8981    6.9683    9.4556 N.pl3   1  UNL1        0.0000
      6 N           7.3440   10.9782    9.6074 N.pl3   1  UNL1        0.0000
      7 N           8.8492   11.1755    8.0618 N.pl3   1  UNL1        0.0000
      8 N           7.8511   10.3822   11.8651 N.pl3   1  UNL1        0.0000
      9 N           9.9426   10.2871   12.4595 N.pl3   1  UNL1        0.0000
     10 C           7.4418    8.1341    9.8673 C.3     1  UNL1        0.0000
     11 C           5.3299    8.1305   10.4695 C.2     1  UNL1        0.0000
     12 H           4.4271    8.5048   10.9040 H       1  UNL1        0.0000
     13 C           5.5829    6.9552    9.8482 C.2     1  UNL1        0.0000
     14 H           4.9278    6.1321    9.6649 H       1  UNL1        0.0000
     15 C           7.5092    5.8852    8.6704 C.3     1  UNL1        0.0000
     16 C           8.1696    4.8838    9.6209 C.3     1  UNL1        0.0000
     17 H           9.0499    5.3200   10.0823 H       1  UNL1        0.0000
     18 H           8.4758    4.0000    9.0687 H       1  UNL1        0.0000
     19 H           7.4740    4.5800   10.3999 H       1  UNL1        0.0000
     20 C           6.4298    5.1765    7.8453 C.3     1  UNL1        0.0000
     21 H           5.7976    4.5460    8.4641 H       1  UNL1        0.0000
     22 H           6.9108    4.5350    7.1119 H       1  UNL1        0.0000
     23 H           5.8097    5.8940    7.3128 H       1  UNL1        0.0000
     24 C           8.5375    6.4842    7.7131 C.3     1  UNL1        0.0000
     25 H           8.0536    7.1841    7.0346 H       1  UNL1        0.0000
     26 H           8.9989    5.6939    7.1277 H       1  UNL1        0.0000
     27 H           9.3257    6.9931    8.2671 H       1  UNL1        0.0000
     28 C           9.0481    9.8859   11.5279 C.3     1  UNL1        0.0000
     29 C           7.9771   11.1018   13.0124 C.2     1  UNL1        0.0000
     30 H           7.1586   11.6246   13.4587 H       1  UNL1        0.0000
     31 C           9.2734   11.0331   13.3957 C.2     1  UNL1        0.0000
     32 H           9.7452   11.4589   14.2535 H       1  UNL1        0.0000
     33 C          11.3931   10.0455   12.5125 C.3     1  UNL1        0.0000
     34 C          11.6528    8.6539   13.0943 C.3     1  UNL1        0.0000
     35 H          11.1019    8.5197   14.0224 H       1  UNL1        0.0000
     36 H          12.7122    8.5343   13.3024 H       1  UNL1        0.0000
     37 H          11.3544    7.8849   12.3895 H       1  UNL1        0.0000
     38 C          12.0688   11.0986   13.3959 C.3     1  UNL1        0.0000
     39 H          11.7708   12.1048   13.1097 H       1  UNL1        0.0000
     40 H          13.1456   11.0189   13.2727 H       1  UNL1        0.0000
     41 H          11.8490   10.9418   14.4484 H       1  UNL1        0.0000
     42 C          11.9662   10.1647   11.1013 C.3     1  UNL1        0.0000
     43 H          11.4882    9.4495   10.4298 H       1  UNL1        0.0000
     44 H          13.0307    9.9483   11.1150 H       1  UNL1        0.0000
     45 H          11.8198   11.1751   10.7249 H       1  UNL1        0.0000
     46 C           8.4340   10.3895    9.0811 C.3     1  UNL1        0.0000
     47 C           7.1024   12.1506    8.9611 C.2     1  UNL1        0.0000
     48 H           6.3171   12.8189    9.2426 H       1  UNL1        0.0000
     49 C           8.0356   12.2772    7.9884 C.2     1  UNL1        0.0000
     50 H           8.1704   13.0572    7.2703 H       1  UNL1        0.0000
     51 C           9.9995   10.9919    7.1747 C.3     1  UNL1        0.0000
     52 C          10.4884    9.5460    7.2275 C.3     1  UNL1        0.0000
     53 H          10.6423    9.2098    8.2620 H       1  UNL1        0.0000
     54 H          11.4415    9.4633    6.7120 H       1  UNL1        0.0000
     55 H           9.7761    8.8886    6.7360 H       1  UNL1        0.0000
     56 C          11.1092   11.9480    7.6233 C.3     1  UNL1        0.0000
     57 H          10.7468   12.9727    7.6515 H       1  UNL1        0.0000
     58 H          11.9442   11.8998    6.9304 H       1  UNL1        0.0000
     59 H          11.4656   11.6804    8.6144 H       1  UNL1        0.0000
     60 C           9.5822   11.3081    5.7331 C.3     1  UNL1        0.0000
     61 H           8.6586   10.7925    5.4796 H       1  UNL1        0.0000
     62 H          10.3590   10.9756    5.0503 H       1  UNL1        0.0000
     63 H           9.4405   12.3735    5.5783 H       1  UNL1        0.0000
     64 C           5.2750   10.9136   11.3547 C.ar    1  UNL1        0.0000
     65 C           4.8563   10.7178   12.6728 C.ar    1  UNL1        0.0000
     66 H           5.5013   10.1952   13.3644 H       1  UNL1        0.0000
     67 C           3.6161   11.1421   13.1158 C.ar    1  UNL1        0.0000
     68 H           3.3297   10.9808   14.1445 H       1  UNL1        0.0000
     69 C           2.7403   11.7615   12.2414 C.ar    1  UNL1        0.0000
     70 H           1.7749   12.1006   12.5844 H       1  UNL1        0.0000
     71 C           3.1057   11.9137   10.9159 C.ar    1  UNL1        0.0000
     72 H           2.4177   12.3602   10.2133 H       1  UNL1        0.0000
     73 C           4.3485   11.4852   10.4824 C.ar    1  UNL1        0.0000
     74 H           4.5855   11.5740    9.4327 H       1  UNL1        0.0000
     75 B           6.6790   10.3337   10.8524 B       1  UNL1        0.0000
@<TRIPOS>BOND
     1    62    60    1
     2    61    60    1
     3    63    60    1
     4    60    51    1
     5    54    52    1
     6    55    52    1
     7    58    56    1
     8    25    24    1
     9    22    20    1
    10    26    24    1
    11    51    52    1
    12    51    56    1
    13    51     7    1
    14    52    53    1
    15    50    49    1
    16    23    20    1
    17    56    57    1
    18    56    59    1
    19    24    27    1
    20    24    15    1
    21    20    21    1
    22    20    15    1
    23    49     7    1
    24    49    47    2
    25     7    46    1
    26    15     5    1
    27    15    16    1
    28    47    48    1
    29    47     6    1
    30    18    16    1
    31    46     6    1
    32    46     1    1
    33    74    73    1
    34     5    13    1
    35     5    10    1
    36     6    75    1
    37    16    17    1
    38    16    19    1
    39    14    13    1
    40    13    11    2
    41    10     1    1
    42    10     4    1
    43     1     2    1
    44     1    28    1
    45    72    71    1
    46    43    42    1
    47     4    11    1
    48     4    75    1
    49    11    12    1
    50    73    71   ar
    51    73    64   ar
    52     2     3    1
    53    45    42    1
    54    75    64    1
    55    75     8    1
    56    71    69   ar
    57    42    44    1
    58    42    33    1
    59    64    65   ar
    60    28     8    1
    61    28     9    1
    62     8    29    1
    63    69    70    1
    64    69    67   ar
    65    37    34    1
    66     9    33    1
    67     9    31    1
    68    33    34    1
    69    33    38    1
    70    65    67   ar
    71    65    66    1
    72    29    31    2
    73    29    30    1
    74    34    36    1
    75    34    35    1
    76    39    38    1
    77    67    68    1
    78    40    38    1
    79    31    32    1
    80    38    41    1
