@<TRIPOS>MOLECULE
CSD_code = SIMCAU | q = 0 | S = 0 | Stoichiometry = C20H25CoN2O6 | MND = 6
 54 59 0 0 0
SMALL
GASTEIGER

@<TRIPOS>ATOM
      1 CO          0.1495    7.6850    8.4769 Co.oh   1  UNL1        0.0000
      2 N           0.6260    7.2482    6.6514 N.3     1  UNL1        0.0000
      3 N          -0.4305    8.6215   10.0871 N.3     1  UNL1        0.0000
      4 O           0.8997    8.0330    4.5809 O.3     1  UNL1        0.0000
      5 O          -1.0189   10.5904   10.9652 O.3     1  UNL1        0.0000
      6 O           1.9093    8.1135    8.9465 O.3     1  UNL1        0.0000
      7 O           2.7563    9.2053    7.1911 O.2     1  UNL1        0.0000
      8 O          -1.5822    6.8629    8.2703 O.3     1  UNL1        0.0000
      9 O          -0.0132    5.7027    9.2112 O.3     1  UNL1        0.0000
     10 C          -0.1990    9.3145    7.7258 C.ar    1  UNL1        0.0000
     11 C          -0.0111    9.4789    6.3601 C.ar    1  UNL1        0.0000
     12 C          -0.2799   10.7132    5.7809 C.ar    1  UNL1        0.0000
     13 H          -0.1264   10.8692    4.7238 H       1  UNL1        0.0000
     14 C          -0.7384   11.7474    6.5906 C.ar    1  UNL1        0.0000
     15 H          -0.9452   12.7083    6.1425 H       1  UNL1        0.0000
     16 C          -0.9281   11.5899    7.9565 C.ar    1  UNL1        0.0000
     17 H          -1.2765   12.4121    8.5639 H       1  UNL1        0.0000
     18 C          -0.6532   10.3508    8.5318 C.ar    1  UNL1        0.0000
     19 C           0.5152    8.2432    5.8288 C.3     1  UNL1        0.0000
     20 C           1.4341    6.7111    4.5260 C.3     1  UNL1        0.0000
     21 H           2.4904    6.7802    4.2531 H       1  UNL1        0.0000
     22 H           0.8934    6.1547    3.7554 H       1  UNL1        0.0000
     23 C           1.2297    6.1193    5.9480 C.3     1  UNL1        0.0000
     24 C           0.2759    4.9234    5.9283 C.3     1  UNL1        0.0000
     25 H           0.1785    4.5184    6.9312 H       1  UNL1        0.0000
     26 H           0.6686    4.1484    5.2736 H       1  UNL1        0.0000
     27 H          -0.7074    5.2275    5.5743 H       1  UNL1        0.0000
     28 C           2.5496    5.7397    6.6150 C.3     1  UNL1        0.0000
     29 H           3.2352    6.5830    6.5876 H       1  UNL1        0.0000
     30 H           2.9980    4.8887    6.1072 H       1  UNL1        0.0000
     31 H           2.3608    5.4844    7.6554 H       1  UNL1        0.0000
     32 C          -0.7165    9.8690    9.8894 C.3     1  UNL1        0.0000
     33 C          -0.9068    9.7225   12.0931 C.3     1  UNL1        0.0000
     34 H          -1.8774    9.6868   12.5956 H       1  UNL1        0.0000
     35 H          -0.1619   10.1395   12.7758 H       1  UNL1        0.0000
     36 C          -0.4828    8.3420   11.5181 C.3     1  UNL1        0.0000
     37 C           0.8992    7.9047   11.9985 C.3     1  UNL1        0.0000
     38 H           1.2049    7.0296   11.4306 H       1  UNL1        0.0000
     39 H           0.8731    7.6638   13.0588 H       1  UNL1        0.0000
     40 H           1.6275    8.6921   11.8204 H       1  UNL1        0.0000
     41 C          -1.5216    7.2627   11.8236 C.3     1  UNL1        0.0000
     42 H          -2.4778    7.5159   11.3701 H       1  UNL1        0.0000
     43 H          -1.6492    7.1656   12.8996 H       1  UNL1        0.0000
     44 H          -1.1852    6.3114   11.4225 H       1  UNL1        0.0000
     45 C           2.8400    8.7087    8.3030 C.2     1  UNL1        0.0000
     46 C           4.1589    8.7642    9.0828 C.3     1  UNL1        0.0000
     47 H           4.9753    8.4669    8.4307 H       1  UNL1        0.0000
     48 H           4.1098    8.1137    9.9501 H       1  UNL1        0.0000
     49 H           4.3299    9.7903    9.3993 H       1  UNL1        0.0000
     50 C          -1.1952    5.7921    8.8139 C.3     1  UNL1        0.0000
     51 C          -2.1611    4.6403    8.9694 C.3     1  UNL1        0.0000
     52 H          -1.7073    3.8534    9.5648 H       1  UNL1        0.0000
     53 H          -2.4169    4.2534    7.9853 H       1  UNL1        0.0000
     54 H          -3.0750    4.9924    9.4409 H       1  UNL1        0.0000
@<TRIPOS>BOND
     1    22    20    1
     2    21    20    1
     3    20     4    1
     4    20    23    1
     5     4    19    1
     6    13    12    1
     7    26    24    1
     8    27    24    1
     9    12    11   ar
    10    12    14   ar
    11    19    11    1
    12    19     2    1
    13    24    23    1
    14    24    25    1
    15    23    28    1
    16    23     2    1
    17    30    28    1
    18    15    14    1
    19    11    10   ar
    20    29    28    1
    21    14    16   ar
    22    28    31    1
    23     2     1    1
    24     7    45    2
    25    10     1    1
    26    10    18   ar
    27    16    18   ar
    28    16    17    1
    29    53    51    1
    30     8     1    1
    31     8    50    1
    32    45     6    1
    33    45    46    1
    34    47    46    1
    35     1     6    1
    36     1     9    1
    37     1     3    1
    38    18    32    1
    39    50    51    1
    40    50     9    1
    41    51    54    1
    42    51    52    1
    43    46    49    1
    44    46    48    1
    45    32     3    1
    46    32     5    1
    47     3    36    1
    48     5    33    1
    49    42    41    1
    50    44    41    1
    51    38    37    1
    52    36    41    1
    53    36    37    1
    54    36    33    1
    55    40    37    1
    56    41    43    1
    57    37    39    1
    58    33    34    1
    59    33    35    1
