@<TRIPOS>MOLECULE
CSD_code = SIQNAK | q = 0 | S = 0 | Stoichiometry = C23H28CoF2NP2 | MND = 6
 57 61 0 0 0
SMALL
GASTEIGER

@<TRIPOS>ATOM
      1 CO          2.4861    6.2304    1.8136 Co.oh   1  UNL1        0.0000
      2 P           3.1861    8.2492    2.1598 P.3     1  UNL1        0.0000
      3 P           1.5569    4.2863    1.6053 P.3     1  UNL1        0.0000
      4 F           7.1057    4.5601    0.3360 F       1  UNL1        0.0000
      5 N           3.9217    5.4998    2.8124 N.pl3   1  UNL1        0.0000
      6 C           3.6923    5.9496    0.3031 C.ar    1  UNL1        0.0000
      7 C           4.9195    5.3874    0.7546 C.ar    1  UNL1        0.0000
      8 F           4.4918    6.1208   -3.2457 F       1  UNL1        0.0000
      9 C           2.4452    5.8558    4.5687 C.ar    1  UNL1        0.0000
     10 C          -0.0397    6.7708    5.3063 C.ar    1  UNL1        0.0000
     11 H          -1.0227    7.1373    5.5727 H       1  UNL1        0.0000
     12 C           4.6318    5.8796   -1.9206 C.ar    1  UNL1        0.0000
     13 C           0.3518    6.8023    3.9582 C.ar    1  UNL1        0.0000
     14 H          -0.3481    7.1937    3.2319 H       1  UNL1        0.0000
     15 C          -0.2548    4.1873    1.8321 C.3     1  UNL1        0.0000
     16 H          -0.7276    4.8680    1.1273 H       1  UNL1        0.0000
     17 H          -0.5046    4.4998    2.8439 H       1  UNL1        0.0000
     18 H          -0.6032    3.1692    1.6583 H       1  UNL1        0.0000
     19 C           4.9850    5.1610    2.1609 C.3     1  UNL1        0.0000
     20 H           5.8682    4.7365    2.6307 H       1  UNL1        0.0000
     21 C           2.9984    5.2987    6.8626 C.ar    1  UNL1        0.0000
     22 H           2.7224    5.2618    7.9072 H       1  UNL1        0.0000
     23 C           1.5906    6.3519    3.5487 C.ar    1  UNL1        0.0000
     24 C           2.0711    5.8141    5.9325 C.ar    1  UNL1        0.0000
     25 C           3.7260    5.3855    4.1747 C.ar    1  UNL1        0.0000
     26 C           4.0112    9.0982    0.7609 C.3     1  UNL1        0.0000
     27 H           3.3272    9.1090   -0.0852 H       1  UNL1        0.0000
     28 H           4.9049    8.5459    0.4761 H       1  UNL1        0.0000
     29 H           4.2790   10.1182    1.0364 H       1  UNL1        0.0000
     30 C           5.8329    5.3316   -1.4873 C.ar    1  UNL1        0.0000
     31 H           6.6297    5.1046   -2.1757 H       1  UNL1        0.0000
     32 C           5.9517    5.0943   -0.1385 C.ar    1  UNL1        0.0000
     33 C           3.5890    6.1840   -1.0691 C.ar    1  UNL1        0.0000
     34 H           2.6894    6.6083   -1.4890 H       1  UNL1        0.0000
     35 C           4.6085    4.8875    5.1110 C.ar    1  UNL1        0.0000
     36 H           5.5860    4.5253    4.8272 H       1  UNL1        0.0000
     37 C           4.2287    4.8502    6.4572 C.ar    1  UNL1        0.0000
     38 H           4.9259    4.4576    7.1837 H       1  UNL1        0.0000
     39 C           1.7280    3.4483   -0.0156 C.3     1  UNL1        0.0000
     40 H           2.7817    3.2759   -0.2271 H       1  UNL1        0.0000
     41 H           1.3238    4.1033   -0.7848 H       1  UNL1        0.0000
     42 H           1.1911    2.4997   -0.0144 H       1  UNL1        0.0000
     43 C           4.4283    8.5209    3.4822 C.3     1  UNL1        0.0000
     44 H           4.6651    9.5825    3.5490 H       1  UNL1        0.0000
     45 H           5.3354    7.9627    3.2546 H       1  UNL1        0.0000
     46 H           4.0282    8.1760    4.4345 H       1  UNL1        0.0000
     47 C           2.1008    2.9396    2.7259 C.3     1  UNL1        0.0000
     48 H           1.5346    2.0338    2.5101 H       1  UNL1        0.0000
     49 H           1.9339    3.2362    3.7603 H       1  UNL1        0.0000
     50 H           3.1622    2.7448    2.5789 H       1  UNL1        0.0000
     51 C           0.7922    6.2896    6.2813 C.ar    1  UNL1        0.0000
     52 H           0.4838    6.2686    7.3172 H       1  UNL1        0.0000
     53 C           1.9428    9.5100    2.6167 C.3     1  UNL1        0.0000
     54 H           2.4128   10.4890    2.7106 H       1  UNL1        0.0000
     55 H           1.4780    9.2269    3.5589 H       1  UNL1        0.0000
     56 H           1.1790    9.5364    1.8423 H       1  UNL1        0.0000
     57 H           1.4173    6.7820    1.0226 H       1  UNL1        0.0000
@<TRIPOS>BOND
     1     8    12    1
     2    31    30    1
     3    12    30   ar
     4    12    33   ar
     5    34    33    1
     6    30    32   ar
     7    33     6   ar
     8    41    39    1
     9    40    39    1
    10    32     4    1
    11    32     7   ar
    12    27    26    1
    13    39    42    1
    14    39     3    1
    15     6     7   ar
    16     6     1    1
    17    28    26    1
    18     7    19    1
    19    26    29    1
    20    26     2    1
    21    57     1    1
    22    16    15    1
    23     3     1    1
    24     3    15    1
    25     3    47    1
    26    18    15    1
    27     1     2    1
    28     1     5    1
    29     1    23    1
    30    15    17    1
    31    56    53    1
    32     2    53    1
    33     2    43    1
    34    19    20    1
    35    19     5    1
    36    48    47    1
    37    50    47    1
    38    53    54    1
    39    53    55    1
    40    47    49    1
    41     5    25    1
    42    14    13    1
    43    45    43    1
    44    43    44    1
    45    43    46    1
    46    23    13   ar
    47    23     9   ar
    48    13    10   ar
    49    25     9   ar
    50    25    35   ar
    51     9    24   ar
    52    36    35    1
    53    35    37   ar
    54    10    11    1
    55    10    51   ar
    56    24    51   ar
    57    24    21   ar
    58    51    52    1
    59    37    21   ar
    60    37    38    1
    61    21    22    1
