@<TRIPOS>MOLECULE
CSD_code = SIWZAZ | q = -1 | S = 0 | Stoichiometry = C18H18CoN2O6(1-) | MND = 6
 45 50 0 0 0
SMALL
GASTEIGER

@<TRIPOS>ATOM
      1 CO         -4.1322    5.2087    2.6347 Co.oh   1  UNL1        0.0000
      2 O          -4.7267    6.9377    3.1155 O.3     1  UNL1        0.0000
      3 C          -5.4015    7.0620    4.1824 C.2     1  UNL1        0.0000
      4 O          -5.9423    8.0796    4.5785 O.2     1  UNL1        0.0000
      5 C          -5.4727    5.7670    5.0426 C.3     1  UNL1        0.0000
      6 N          -5.0559    4.6178    4.2312 N.4     1  UNL1        0.0000
      7 C          -4.3178    3.6146    5.0054 C.3     1  UNL1        0.0000
      8 C          -3.0381    4.1764    5.5685 C.ar    1  UNL1        0.0000
      9 C          -2.6376    3.8171    6.8437 C.ar    1  UNL1        0.0000
     10 C          -1.4477    4.2640    7.3906 C.ar    1  UNL1        0.0000
     11 C          -0.6382    5.0960    6.6330 C.ar    1  UNL1        0.0000
     12 C          -1.0191    5.4755    5.3673 C.ar    1  UNL1        0.0000
     13 C          -2.2308    5.0397    4.7863 C.ar    1  UNL1        0.0000
     14 O          -2.5215    5.4614    3.5938 O.3     1  UNL1        0.0000
     15 H          -6.4759    5.6416    5.4621 H       1  UNL1        0.0000
     16 H          -4.7601    5.9032    5.8621 H       1  UNL1        0.0000
     17 H          -5.8855    4.1776    3.8301 H       1  UNL1        0.0000
     18 H          -4.0839    2.7878    4.3258 H       1  UNL1        0.0000
     19 H          -4.9446    3.2349    5.8268 H       1  UNL1        0.0000
     20 H          -3.2759    3.1610    7.4243 H       1  UNL1        0.0000
     21 H          -1.1578    3.9684    8.3889 H       1  UNL1        0.0000
     22 H           0.2985    5.4554    7.0396 H       1  UNL1        0.0000
     23 H          -0.3926    6.1279    4.7761 H       1  UNL1        0.0000
     24 O          -3.5377    3.4796    2.1540 O.3     1  UNL1        0.0000
     25 N          -3.2087    5.7990    1.0380 N.4     1  UNL1        0.0000
     26 O          -5.7427    4.9565    1.6754 O.3     1  UNL1        0.0000
     27 C          -2.8642    3.3551    1.0864 C.2     1  UNL1        0.0000
     28 C          -2.7952    4.6495    0.2254 C.3     1  UNL1        0.0000
     29 C          -3.9452    6.8044    0.2651 C.3     1  UNL1        0.0000
     30 H          -2.3777    6.2370    1.4386 H       1  UNL1        0.0000
     31 C          -6.0348    5.3826    0.4847 C.ar    1  UNL1        0.0000
     32 O          -2.3232    2.3376    0.6901 O.2     1  UNL1        0.0000
     33 H          -1.7935    4.7745   -0.1979 H       1  UNL1        0.0000
     34 H          -3.5109    4.5135   -0.5915 H       1  UNL1        0.0000
     35 C          -5.2272    6.2464   -0.2967 C.ar    1  UNL1        0.0000
     36 H          -4.1762    7.6315    0.9453 H       1  UNL1        0.0000
     37 H          -3.3185    7.1828   -0.5569 H       1  UNL1        0.0000
     38 C          -7.2486    4.9510   -0.0951 C.ar    1  UNL1        0.0000
     39 C          -5.6296    6.6102   -1.5700 C.ar    1  UNL1        0.0000
     40 C          -7.6312    5.3349   -1.3590 C.ar    1  UNL1        0.0000
     41 H          -7.8752    4.2983    0.4955 H       1  UNL1        0.0000
     42 C          -6.8215    6.1674   -2.1159 C.ar    1  UNL1        0.0000
     43 H          -4.9911    7.2667   -2.1499 H       1  UNL1        0.0000
     44 H          -8.5696    4.9788   -1.7647 H       1  UNL1        0.0000
     45 H          -7.1128    6.4666   -3.1127 H       1  UNL1        0.0000
@<TRIPOS>BOND
     1    45    42    1
     2    43    39    1
     3    42    39   ar
     4    42    40   ar
     5    44    40    1
     6    39    35   ar
     7    40    38   ar
     8    34    28    1
     9    37    29    1
    10    35    29    1
    11    35    31   ar
    12    33    28    1
    13    38    31   ar
    14    38    41    1
    15    28    25    1
    16    28    27    1
    17    29    36    1
    18    29    25    1
    19    31    26    1
    20    32    27    2
    21    25    30    1
    22    25     1    1
    23    27    24    1
    24    26     1    1
    25    24     1    1
    26     1     2    1
    27     1    14    1
    28     1     6    1
    29     2     3    1
    30    14    13    1
    31    17     6    1
    32     3     4    2
    33     3     5    1
    34     6     7    1
    35     6     5    1
    36    18     7    1
    37    23    12    1
    38    13    12   ar
    39    13     8   ar
    40     7     8    1
    41     7    19    1
    42     5    15    1
    43     5    16    1
    44    12    11   ar
    45     8     9   ar
    46    11    22    1
    47    11    10   ar
    48     9    10   ar
    49     9    20    1
    50    10    21    1
