@<TRIPOS>MOLECULE
CSD_code = SUHNAK | q = 0 | S = 0 | Stoichiometry = C41H39CoNOP3 | MND = 4
 86 93 0 0 0
SMALL
GASTEIGER

@<TRIPOS>ATOM
      1 CO          4.6471    4.9001    5.4482 Co.oh   1  UNL1        0.0000
      2 P           6.6832    4.2984    4.8387 P.3     1  UNL1        0.0000
      3 P           3.8687    4.0955    3.5457 P.3     1  UNL1        0.0000
      4 P           4.3442    2.8691    6.2753 P.3     1  UNL1        0.0000
      5 O           5.0592    7.3936    6.4894 O.3     1  UNL1        0.0000
      6 N           4.5965    6.3618    6.1106 N.3     1  UNL1        0.0000
      7 C           6.8330    2.4904    4.4760 C.3     1  UNL1        0.0000
      8 C           4.8919    2.7188    2.8562 C.3     1  UNL1        0.0000
      9 C           4.5756    1.5013    5.0515 C.3     1  UNL1        0.0000
     10 C           5.5590    1.8368    3.9214 C.3     1  UNL1        0.0000
     11 C           5.9673    0.5166    3.2477 C.3     1  UNL1        0.0000
     12 C           8.3781    5.9425    6.1604 C.ar    1  UNL1        0.0000
     13 C           9.4713    6.3378    6.9045 C.ar    1  UNL1        0.0000
     14 C          10.4068    5.3969    7.3063 C.ar    1  UNL1        0.0000
     15 C          10.2409    4.0682    6.9571 C.ar    1  UNL1        0.0000
     16 C           9.1472    3.6693    6.2072 C.ar    1  UNL1        0.0000
     17 C           8.2063    4.6064    5.8012 C.ar    1  UNL1        0.0000
     18 C           6.5181    6.0858    2.7248 C.ar    1  UNL1        0.0000
     19 C           6.9085    6.6815    1.5387 C.ar    1  UNL1        0.0000
     20 C           8.0630    6.2582    0.9035 C.ar    1  UNL1        0.0000
     21 C           8.8374    5.2565    1.4692 C.ar    1  UNL1        0.0000
     22 C           8.4477    4.6600    2.6534 C.ar    1  UNL1        0.0000
     23 C           7.2677    5.0554    3.2764 C.ar    1  UNL1        0.0000
     24 C           2.8233    6.2537    2.2837 C.ar    1  UNL1        0.0000
     25 C           2.4964    7.1096    1.2516 C.ar    1  UNL1        0.0000
     26 C           2.9050    6.8151   -0.0400 C.ar    1  UNL1        0.0000
     27 C           3.6328    5.6644   -0.2866 C.ar    1  UNL1        0.0000
     28 C           3.9556    4.8005    0.7466 C.ar    1  UNL1        0.0000
     29 C           3.5527    5.0912    2.0428 C.ar    1  UNL1        0.0000
     30 C           1.6400    2.5579    2.6547 C.ar    1  UNL1        0.0000
     31 C           0.3705    2.0352    2.8160 C.ar    1  UNL1        0.0000
     32 C          -0.3635    2.3190    3.9575 C.ar    1  UNL1        0.0000
     33 C           0.1649    3.1505    4.9297 C.ar    1  UNL1        0.0000
     34 C           1.4364    3.6704    4.7708 C.ar    1  UNL1        0.0000
     35 C           2.1939    3.3582    3.6486 C.ar    1  UNL1        0.0000
     36 C           2.1480    1.1219    6.9663 C.ar    1  UNL1        0.0000
     37 C           1.0347    0.8405    7.7405 C.ar    1  UNL1        0.0000
     38 C           0.6264    1.7171    8.7301 C.ar    1  UNL1        0.0000
     39 C           1.3350    2.8885    8.9495 C.ar    1  UNL1        0.0000
     40 C           2.4400    3.1741    8.1740 C.ar    1  UNL1        0.0000
     41 C           2.8593    2.2951    7.1771 C.ar    1  UNL1        0.0000
     42 C           5.6616    1.1390    8.0979 C.ar    1  UNL1        0.0000
     43 C           6.5940    0.8639    9.0803 C.ar    1  UNL1        0.0000
     44 C           7.4120    1.8711    9.5693 C.ar    1  UNL1        0.0000
     45 C           7.2788    3.1627    9.0903 C.ar    1  UNL1        0.0000
     46 C           6.3468    3.4386    8.1059 C.ar    1  UNL1        0.0000
     47 C           5.5507    2.4275    7.5837 C.ar    1  UNL1        0.0000
     48 H           7.0806    2.0010    5.4244 H       1  UNL1        0.0000
     49 H           7.6603    2.3384    3.7755 H       1  UNL1        0.0000
     50 H           5.6774    3.1877    2.2525 H       1  UNL1        0.0000
     51 H           4.2721    2.0965    2.2034 H       1  UNL1        0.0000
     52 H           3.5936    1.3073    4.6055 H       1  UNL1        0.0000
     53 H           4.9104    0.5994    5.5732 H       1  UNL1        0.0000
     54 H           5.0870   -0.0466    2.9413 H       1  UNL1        0.0000
     55 H           6.5458   -0.1012    3.9329 H       1  UNL1        0.0000
     56 H           6.5749    0.7084    2.3647 H       1  UNL1        0.0000
     57 H           7.6308    6.6647    5.8557 H       1  UNL1        0.0000
     58 H           9.5934    7.3756    7.1776 H       1  UNL1        0.0000
     59 H          11.2620    5.6985    7.8936 H       1  UNL1        0.0000
     60 H          10.9674    3.3324    7.2721 H       1  UNL1        0.0000
     61 H           9.0417    2.6251    5.9530 H       1  UNL1        0.0000
     62 H           5.6266    6.4209    3.2412 H       1  UNL1        0.0000
     63 H           6.3101    7.4732    1.1120 H       1  UNL1        0.0000
     64 H           8.3699    6.7154   -0.0258 H       1  UNL1        0.0000
     65 H           9.7518    4.9430    0.9854 H       1  UNL1        0.0000
     66 H           9.0695    3.8958    3.1008 H       1  UNL1        0.0000
     67 H           2.5300    6.4785    3.3031 H       1  UNL1        0.0000
     68 H           1.9303    8.0081    1.4498 H       1  UNL1        0.0000
     69 H           2.6590    7.4836   -0.8522 H       1  UNL1        0.0000
     70 H           3.9551    5.4354   -1.2926 H       1  UNL1        0.0000
     71 H           4.5267    3.9111    0.5258 H       1  UNL1        0.0000
     72 H           2.1922    2.3492    1.7482 H       1  UNL1        0.0000
     73 H          -0.0522    1.4058    2.0456 H       1  UNL1        0.0000
     74 H          -1.3518    1.9005    4.0798 H       1  UNL1        0.0000
     75 H          -0.4088    3.3892    5.8133 H       1  UNL1        0.0000
     76 H           1.8593    4.3324    5.5191 H       1  UNL1        0.0000
     77 H           2.4429    0.4195    6.2009 H       1  UNL1        0.0000
     78 H           0.4828   -0.0725    7.5671 H       1  UNL1        0.0000
     79 H          -0.2438    1.4898    9.3284 H       1  UNL1        0.0000
     80 H           1.0194    3.5767    9.7201 H       1  UNL1        0.0000
     81 H           2.9956    4.0942    8.3185 H       1  UNL1        0.0000
     82 H           5.0107    0.3515    7.7415 H       1  UNL1        0.0000
     83 H           6.6814   -0.1400    9.4713 H       1  UNL1        0.0000
     84 H           8.1428    1.6479   10.3328 H       1  UNL1        0.0000
     85 H           7.9008    3.9556    9.4788 H       1  UNL1        0.0000
     86 H           6.2245    4.4492    7.7343 H       1  UNL1        0.0000
@<TRIPOS>BOND
     1    70    27    1
     2    69    26    1
     3    27    26   ar
     4    27    28   ar
     5    26    25   ar
     6    64    20    1
     7    71    28    1
     8    28    29   ar
     9    20    21   ar
    10    20    19   ar
    11    65    21    1
    12    63    19    1
    13    25    68    1
    14    25    24   ar
    15    21    22   ar
    16    19    18   ar
    17    72    30    1
    18    29    24   ar
    19    29     3    1
    20    73    31    1
    21    51     8    1
    22    50     8    1
    23    24    67    1
    24    56    11    1
    25    22    66    1
    26    22    23   ar
    27    30    31   ar
    28    30    35   ar
    29    18    62    1
    30    18    23   ar
    31    31    32   ar
    32     8     3    1
    33     8    10    1
    34    54    11    1
    35    11    10    1
    36    11    55    1
    37    23     2    1
    38     3    35    1
    39     3     1    1
    40    35    34   ar
    41    49     7    1
    42    10     7    1
    43    10     9    1
    44    32    74    1
    45    32    33   ar
    46     7     2    1
    47     7    48    1
    48    52     9    1
    49    34    33   ar
    50    34    76    1
    51     2     1    1
    52     2    17    1
    53    33    75    1
    54     9    53    1
    55     9     4    1
    56     1     6    1
    57     1     4    1
    58    17    12   ar
    59    17    16   ar
    60    57    12    1
    61    61    16    1
    62     6     5    1
    63    12    13   ar
    64    77    36    1
    65    16    15   ar
    66     4    41    1
    67     4    47    1
    68    13    58    1
    69    13    14   ar
    70    15    60    1
    71    15    14   ar
    72    36    41   ar
    73    36    37   ar
    74    41    40   ar
    75    14    59    1
    76    78    37    1
    77    47    42   ar
    78    47    46   ar
    79    86    46    1
    80    37    38   ar
    81    82    42    1
    82    42    43   ar
    83    46    45   ar
    84    40    81    1
    85    40    39   ar
    86    38    39   ar
    87    38    79    1
    88    39    80    1
    89    43    83    1
    90    43    44   ar
    91    45    85    1
    92    45    44   ar
    93    44    84    1
