@<TRIPOS>MOLECULE
CSD_code = SUMROJ | q = 0 | S = 0 | Stoichiometry = C22H28CoN5O3 | MND = 6
 59 63 0 0 0
SMALL
GASTEIGER

@<TRIPOS>ATOM
      1 CO          4.7118    5.8395    6.1071 Co.oh   1  UNL1        0.0000
      2 O           6.2486    6.6493    5.4932 O.3     1  UNL1        0.0000
      3 O           5.6897    5.4276    7.7367 O.2     1  UNL1        0.0000
      4 O           4.2059    7.5445    6.7554 O.3     1  UNL1        0.0000
      5 N           5.1932    4.1849    5.4614 N.3     1  UNL1        0.0000
      6 N           2.9089    4.9061    6.8261 N.4     1  UNL1        0.0000
      7 N           3.8527    6.1959    4.5034 N.2     1  UNL1        0.0000
      8 N           4.0082    7.1172    3.7937 N.2     1  UNL1        0.0000
      9 N           4.0381    7.9316    3.0065 N.2     1  UNL1        0.0000
     10 C           8.4517    3.0563    2.9885 C.ar    1  UNL1        0.0000
     11 H           7.7157    2.3043    3.2271 H       1  UNL1        0.0000
     12 C           9.5079    2.6877    2.1929 C.ar    1  UNL1        0.0000
     13 H           9.5782    1.6704    1.8353 H       1  UNL1        0.0000
     14 C          10.4908    3.6120    1.8370 C.ar    1  UNL1        0.0000
     15 H          11.3166    3.3098    1.2106 H       1  UNL1        0.0000
     16 C          10.3882    4.9014    2.2889 C.ar    1  UNL1        0.0000
     17 H          11.1342    5.6366    2.0219 H       1  UNL1        0.0000
     18 C           9.3166    5.3008    3.1032 C.ar    1  UNL1        0.0000
     19 C           9.2207    6.6441    3.5535 C.ar    1  UNL1        0.0000
     20 H           9.9909    7.3406    3.2527 H       1  UNL1        0.0000
     21 C           8.1950    7.0558    4.3316 C.ar    1  UNL1        0.0000
     22 H           8.1085    8.0767    4.6706 H       1  UNL1        0.0000
     23 C           7.1609    6.1547    4.7447 C.ar    1  UNL1        0.0000
     24 C           7.2301    4.8007    4.3192 C.ar    1  UNL1        0.0000
     25 C           8.3159    4.3687    3.4781 C.ar    1  UNL1        0.0000
     26 C           6.2302    3.8959    4.7451 C.3     1  UNL1        0.0000
     27 H           6.3445    2.8536    4.4527 H       1  UNL1        0.0000
     28 C           4.2950    3.1231    5.8507 C.3     1  UNL1        0.0000
     29 H           4.6237    2.7126    6.8134 H       1  UNL1        0.0000
     30 H           4.2985    2.3092    5.1143 H       1  UNL1        0.0000
     31 C           2.8921    3.7085    5.9718 C.3     1  UNL1        0.0000
     32 H           2.5687    4.0158    4.9759 H       1  UNL1        0.0000
     33 H           2.2030    2.9470    6.3606 H       1  UNL1        0.0000
     34 C           1.7310    5.7476    6.5425 C.3     1  UNL1        0.0000
     35 H           1.7947    6.0381    5.4927 H       1  UNL1        0.0000
     36 H           1.8248    6.6591    7.1317 H       1  UNL1        0.0000
     37 C           0.3710    5.1002    6.7999 C.3     1  UNL1        0.0000
     38 H           0.2232    4.2202    6.1793 H       1  UNL1        0.0000
     39 H          -0.4033    5.8200    6.5470 H       1  UNL1        0.0000
     40 H           0.2383    4.8202    7.8419 H       1  UNL1        0.0000
     41 C           2.9428    4.4808    8.2394 C.3     1  UNL1        0.0000
     42 H           3.9103    4.0087    8.4161 H       1  UNL1        0.0000
     43 H           2.1622    3.7249    8.4098 H       1  UNL1        0.0000
     44 C           2.7745    5.6028    9.2556 C.3     1  UNL1        0.0000
     45 H           3.4439    6.4272    9.0324 H       1  UNL1        0.0000
     46 H           3.0237    5.2209   10.2437 H       1  UNL1        0.0000
     47 H           1.7545    5.9766    9.2873 H       1  UNL1        0.0000
     48 C           4.8146    8.1841    7.6559 C.3     1  UNL1        0.0000
     49 C           4.4558    9.6452    7.8068 C.3     1  UNL1        0.0000
     50 H           5.3107   10.2526    7.5161 H       1  UNL1        0.0000
     51 H           4.2057    9.8764    8.8399 H       1  UNL1        0.0000
     52 H           3.6179    9.8841    7.1573 H       1  UNL1        0.0000
     53 C           5.7545    7.6489    8.5408 C.2     1  UNL1        0.0000
     54 H           6.2109    8.3037    9.2656 H       1  UNL1        0.0000
     55 C           6.1255    6.3038    8.5321 C.2     1  UNL1        0.0000
     56 C           7.1072    5.8416    9.5876 C.3     1  UNL1        0.0000
     57 H           6.7393    6.0889   10.5810 H       1  UNL1        0.0000
     58 H           8.0600    6.3455    9.4404 H       1  UNL1        0.0000
     59 H           7.2569    4.7679    9.5096 H       1  UNL1        0.0000
@<TRIPOS>BOND
     1    15    14    1
     2    13    12    1
     3    14    12   ar
     4    14    16   ar
     5    17    16    1
     6    12    10   ar
     7    16    18   ar
     8    10    11    1
     9    10    25   ar
    10     9     8    2
    11    18    25   ar
    12    18    19   ar
    13    20    19    1
    14    25    24   ar
    15    19    21   ar
    16     8     7    2
    17    24    23   ar
    18    24    26    1
    19    21    22    1
    20    21    23   ar
    21    27    26    1
    22     7     1    1
    23    23     2    1
    24    26     5    1
    25    32    31    1
    26    30    28    1
    27     5    28    1
    28     5     1    1
    29    35    34    1
    30     2     1    1
    31    28    31    1
    32    28    29    1
    33    31    33    1
    34    31     6    1
    35     1     4    1
    36     1     6    1
    37     1     3    1
    38    38    37    1
    39    34    37    1
    40    34     6    1
    41    34    36    1
    42    39    37    1
    43     4    48    1
    44    37    40    1
    45     6    41    1
    46    52    49    1
    47    50    49    1
    48    48    49    1
    49    48    53    1
    50     3    55    1
    51    49    51    1
    52    41    43    1
    53    41    42    1
    54    41    44    1
    55    55    53    2
    56    55    56    1
    57    53    54    1
    58    45    44    1
    59    44    47    1
    60    44    46    1
    61    58    56    1
    62    59    56    1
    63    56    57    1
