@<TRIPOS>MOLECULE
CSD_code = SUNPOI | q = 0 | S = 0 | Stoichiometry = C36H53CoN2O | MND = 5
 93 95 0 0 0
SMALL
GASTEIGER

@<TRIPOS>ATOM
      1 CO          2.9764   10.1763    0.6585 Co.oh   1  UNL1        0.0000
      2 C           4.4867   10.9839    0.9764 C.3     1  UNL1        0.0000
      3 O           5.4341   11.5829    1.2500 O.3     1  UNL1        0.0000
      4 N           3.6262    8.3417    0.3613 N.pl3   1  UNL1        0.0000
      5 N           1.3157    9.6529    0.4346 N.pl3   1  UNL1        0.0000
      6 C           3.3678    5.8508   -0.1891 C.3     1  UNL1        0.0000
      7 C           2.8716    7.2908    0.0917 C.3     1  UNL1        0.0000
      8 C           1.4750    7.3888   -0.0081 C.2     1  UNL1        0.0000
      9 H           0.9368    6.4853   -0.2161 H       1  UNL1        0.0000
     10 C           0.7019    8.5353    0.1554 C.2     1  UNL1        0.0000
     11 C          -0.8235    8.3863    0.1190 C.3     1  UNL1        0.0000
     12 C           4.8461    5.5444    0.0685 C.3     1  UNL1        0.0000
     13 H           5.0224    4.4922   -0.1559 H       1  UNL1        0.0000
     14 H           5.1235    5.7179    1.1023 H       1  UNL1        0.0000
     15 H           5.5021    6.1283   -0.5647 H       1  UNL1        0.0000
     16 C           2.5576    4.8537    0.6685 C.3     1  UNL1        0.0000
     17 H           1.5910    4.6225    0.2295 H       1  UNL1        0.0000
     18 H           2.3901    5.2466    1.6685 H       1  UNL1        0.0000
     19 H           3.1004    3.9153    0.7585 H       1  UNL1        0.0000
     20 C           3.1036    5.5694   -1.6788 C.3     1  UNL1        0.0000
     21 H           2.0540    5.6904   -1.9321 H       1  UNL1        0.0000
     22 H           3.3987    4.5498   -1.9198 H       1  UNL1        0.0000
     23 H           3.6792    6.2504   -2.2995 H       1  UNL1        0.0000
     24 C          -1.2220    7.5320    1.3329 C.3     1  UNL1        0.0000
     25 H          -2.2993    7.3779    1.3442 H       1  UNL1        0.0000
     26 H          -0.9369    8.0322    2.2565 H       1  UNL1        0.0000
     27 H          -0.7362    6.5605    1.3097 H       1  UNL1        0.0000
     28 C          -1.2655    7.6890   -1.1747 C.3     1  UNL1        0.0000
     29 H          -2.3517    7.6280   -1.2049 H       1  UNL1        0.0000
     30 H          -0.8723    6.6793   -1.2460 H       1  UNL1        0.0000
     31 H          -0.9323    8.2473   -2.0474 H       1  UNL1        0.0000
     32 C          -1.5752    9.7162    0.2135 C.3     1  UNL1        0.0000
     33 H          -2.6448    9.5179    0.2663 H       1  UNL1        0.0000
     34 H          -1.3951   10.3427   -0.6553 H       1  UNL1        0.0000
     35 H          -1.2951   10.2713    1.1040 H       1  UNL1        0.0000
     36 C           5.0259    8.2942    0.5717 C.ar    1  UNL1        0.0000
     37 C           5.9263    8.4569   -0.4979 C.ar    1  UNL1        0.0000
     38 C           7.2893    8.4058   -0.2493 C.ar    1  UNL1        0.0000
     39 H           7.9841    8.5348   -1.0652 H       1  UNL1        0.0000
     40 C           7.7773    8.1820    1.0227 C.ar    1  UNL1        0.0000
     41 H           8.8414    8.1158    1.1943 H       1  UNL1        0.0000
     42 C           6.8938    8.0773    2.0786 C.ar    1  UNL1        0.0000
     43 H           7.2815    7.9369    3.0757 H       1  UNL1        0.0000
     44 C           5.5236    8.1576    1.8821 C.ar    1  UNL1        0.0000
     45 C           5.4452    8.7465   -1.9024 C.3     1  UNL1        0.0000
     46 H           4.3574    8.6313   -1.9232 H       1  UNL1        0.0000
     47 C           5.7878   10.1955   -2.2621 C.3     1  UNL1        0.0000
     48 H           5.3653   10.8778   -1.5287 H       1  UNL1        0.0000
     49 H           5.3906   10.4478   -3.2429 H       1  UNL1        0.0000
     50 H           6.8656   10.3384   -2.2775 H       1  UNL1        0.0000
     51 C           6.0532    7.8055   -2.9461 C.3     1  UNL1        0.0000
     52 H           5.5903    7.9816   -3.9154 H       1  UNL1        0.0000
     53 H           5.9029    6.7622   -2.6786 H       1  UNL1        0.0000
     54 H           7.1218    7.9757   -3.0497 H       1  UNL1        0.0000
     55 C           4.5996    8.1562    3.0805 C.3     1  UNL1        0.0000
     56 H           3.6202    8.5274    2.7472 H       1  UNL1        0.0000
     57 C           5.1145    9.0994    4.1716 C.3     1  UNL1        0.0000
     58 H           5.3837   10.0635    3.7486 H       1  UNL1        0.0000
     59 H           5.9888    8.6868    4.6687 H       1  UNL1        0.0000
     60 H           4.3449    9.2514    4.9248 H       1  UNL1        0.0000
     61 C           4.4180    6.7543    3.6651 C.3     1  UNL1        0.0000
     62 H           3.9365    6.0935    2.9508 H       1  UNL1        0.0000
     63 H           3.7998    6.7993    4.5598 H       1  UNL1        0.0000
     64 H           5.3821    6.3271    3.9349 H       1  UNL1        0.0000
     65 C           1.0121   11.0000    0.4699 C.ar    1  UNL1        0.0000
     66 C           1.0181   11.6745    1.7186 C.ar    1  UNL1        0.0000
     67 C           0.8674   13.0581    1.7315 C.ar    1  UNL1        0.0000
     68 H           0.8718   13.5838    2.6747 H       1  UNL1        0.0000
     69 C           0.7040   13.7702    0.5628 C.ar    1  UNL1        0.0000
     70 H           0.5886   14.8434    0.5944 H       1  UNL1        0.0000
     71 C           0.6871   13.1110   -0.6582 C.ar    1  UNL1        0.0000
     72 H           0.5632   13.6866   -1.5622 H       1  UNL1        0.0000
     73 C           0.8366   11.7408   -0.7325 C.ar    1  UNL1        0.0000
     74 C           1.0518   10.9138    3.0281 C.3     1  UNL1        0.0000
     75 H           1.1529    9.8429    2.8117 H       1  UNL1        0.0000
     76 C           2.2489   11.3363    3.8804 C.3     1  UNL1        0.0000
     77 H           2.2795   10.7532    4.7981 H       1  UNL1        0.0000
     78 H           2.1890   12.3889    4.1463 H       1  UNL1        0.0000
     79 H           3.1730   11.1704    3.3281 H       1  UNL1        0.0000
     80 C          -0.2497   11.1225    3.8091 C.3     1  UNL1        0.0000
     81 H          -1.1153   10.8204    3.2225 H       1  UNL1        0.0000
     82 H          -0.3754   12.1671    4.0835 H       1  UNL1        0.0000
     83 H          -0.2328   10.5294    4.7213 H       1  UNL1        0.0000
     84 C           0.8941   11.0236   -2.0613 C.3     1  UNL1        0.0000
     85 H           0.6015    9.9801   -1.9075 H       1  UNL1        0.0000
     86 C           2.3498   11.0234   -2.5344 C.3     1  UNL1        0.0000
     87 H           2.9794   10.5829   -1.7527 H       1  UNL1        0.0000
     88 H           2.6919   12.0390   -2.7219 H       1  UNL1        0.0000
     89 H           2.4590   10.4399   -3.4461 H       1  UNL1        0.0000
     90 C          -0.0267   11.6212   -3.1243 C.3     1  UNL1        0.0000
     91 H          -1.0389   11.7416   -2.7421 H       1  UNL1        0.0000
     92 H          -0.0629   10.9619   -3.9894 H       1  UNL1        0.0000
     93 H           0.3332   12.5903   -3.4606 H       1  UNL1        0.0000
@<TRIPOS>BOND
     1    92    90    1
     2    52    51    1
     3    93    90    1
     4    89    86    1
     5    49    47    1
     6    90    91    1
     7    90    84    1
     8    54    51    1
     9    51    53    1
    10    51    45    1
    11    88    86    1
    12    86    84    1
    13    86    87    1
    14    23    20    1
    15    50    47    1
    16    47    45    1
    17    47    48    1
    18    84    85    1
    19    84    73    1
    20    31    28    1
    21    21    20    1
    22    46    45    1
    23    22    20    1
    24    45    37    1
    25    20     6    1
    26    72    71    1
    27    30    28    1
    28    29    28    1
    29    28    11    1
    30    39    38    1
    31    73    71   ar
    32    73    65   ar
    33    71    69   ar
    34    34    32    1
    35    15    12    1
    36    37    38   ar
    37    37    36   ar
    38    38    40   ar
    39     9     8    1
    40     6    12    1
    41     6     7    1
    42     6    16    1
    43    13    12    1
    44     8     7    1
    45     8    10    2
    46    12    14    1
    47     7     4    1
    48    11    10    1
    49    11    32    1
    50    11    24    1
    51    10     5    1
    52    32    33    1
    53    32    35    1
    54    17    16    1
    55     4    36    1
    56     4     1    1
    57     5    65    1
    58     5     1    1
    59    65    66   ar
    60    69    70    1
    61    69    67   ar
    62    36    44   ar
    63     1     2    1
    64    16    19    1
    65    16    18    1
    66     2     3    1
    67    40    41    1
    68    40    42   ar
    69    27    24    1
    70    24    25    1
    71    24    26    1
    72    66    67   ar
    73    66    74    1
    74    67    68    1
    75    44    42   ar
    76    44    55    1
    77    42    43    1
    78    56    55    1
    79    75    74    1
    80    62    61    1
    81    74    80    1
    82    74    76    1
    83    55    61    1
    84    55    57    1
    85    81    80    1
    86    79    76    1
    87    61    64    1
    88    61    63    1
    89    58    57    1
    90    80    82    1
    91    80    83    1
    92    76    78    1
    93    76    77    1
    94    57    59    1
    95    57    60    1
