@<TRIPOS>MOLECULE
CSD_code = SUXVAI | q = 1 | S = 0 | Stoichiometry = C22H28B2CoN12S4(1+) | MND = 6
 69 78 0 0 0
SMALL
GASTEIGER

@<TRIPOS>ATOM
      1 CO          8.8319    9.8303   10.0434 Co.oh   1  UNL1        0.0000
      2 S           7.2344    8.3138    9.3428 S.3     1  UNL1        0.0000
      3 S          10.8253    8.6159    9.5399 S.3     1  UNL1        0.0000
      4 S           8.9741   10.2191    7.7471 S.3     1  UNL1        0.0000
      5 S           7.0085   11.2686   10.3403 S.3     1  UNL1        0.0000
      6 N           8.8728    6.2648   10.1475 N.pl3   1  UNL1        0.0000
      7 N           8.1478    6.1368    8.0841 N.pl3   1  UNL1        0.0000
      8 N          10.6983    6.9593   11.7074 N.pl3   1  UNL1        0.0000
      9 N          12.6641    7.8585   11.3494 N.pl3   1  UNL1        0.0000
     10 N           8.4286    7.8164   12.1988 N.3     1  UNL1        0.0000
     11 N           8.5525    9.1110   11.8492 N.pl3   1  UNL1        0.0000
     12 N          10.4461   12.5119    7.9667 N.pl3   1  UNL1        0.0000
     13 N          11.2774   11.0042    6.6129 N.pl3   1  UNL1        0.0000
     14 N           8.0897   13.0830    8.5776 N.pl3   1  UNL1        0.0000
     15 N           5.9827   12.5761    8.2514 N.pl3   1  UNL1        0.0000
     16 N           9.9201   12.5940   10.3817 N.3     1  UNL1        0.0000
     17 N           9.9757   11.2859   10.6854 N.pl3   1  UNL1        0.0000
     18 C           8.1288    6.8749    9.2138 C.3     1  UNL1        0.0000
     19 C           9.3770    5.1239    9.5827 C.2     1  UNL1        0.0000
     20 H          10.0125    4.4642   10.1351 H       1  UNL1        0.0000
     21 C           8.9262    5.0369    8.3082 C.2     1  UNL1        0.0000
     22 H           9.0937    4.2930    7.5576 H       1  UNL1        0.0000
     23 C           7.4635    6.4757    6.8698 C.3     1  UNL1        0.0000
     24 H           7.9761    6.0197    6.0255 H       1  UNL1        0.0000
     25 H           7.4577    7.5616    6.7620 H       1  UNL1        0.0000
     26 H           6.4303    6.1248    6.8989 H       1  UNL1        0.0000
     27 C          11.3859    7.7953   10.9161 C.3     1  UNL1        0.0000
     28 C          11.5590    6.4983   12.6644 C.2     1  UNL1        0.0000
     29 H          11.2331    5.8191   13.4234 H       1  UNL1        0.0000
     30 C          12.7798    7.0433   12.4437 C.2     1  UNL1        0.0000
     31 H          13.7057    6.9204   12.9652 H       1  UNL1        0.0000
     32 C          13.7113    8.6318   10.7464 C.3     1  UNL1        0.0000
     33 H          14.3852    9.0007   11.5175 H       1  UNL1        0.0000
     34 H          13.2627    9.4698   10.2122 H       1  UNL1        0.0000
     35 H          14.2766    8.0266   10.0350 H       1  UNL1        0.0000
     36 C           7.8099    7.7397   13.3879 C.3     1  UNL1        0.0000
     37 H           7.6153    6.7932   13.8478 H       1  UNL1        0.0000
     38 C           7.5231    9.0123   13.8254 C.2     1  UNL1        0.0000
     39 H           7.0325    9.3045   14.7295 H       1  UNL1        0.0000
     40 C           8.0118    9.8399   12.8234 C.2     1  UNL1        0.0000
     41 H           7.9916   10.9111   12.7838 H       1  UNL1        0.0000
     42 C          10.2696   11.2808    7.4657 C.3     1  UNL1        0.0000
     43 C          11.5975   13.0124    7.4267 C.2     1  UNL1        0.0000
     44 H          11.9555   13.9866    7.6852 H       1  UNL1        0.0000
     45 C          12.1126   12.0864    6.5809 C.2     1  UNL1        0.0000
     46 H          12.9894   12.1118    5.9681 H       1  UNL1        0.0000
     47 C          11.4272    9.7751    5.8887 C.3     1  UNL1        0.0000
     48 H          12.4733    9.6336    5.6269 H       1  UNL1        0.0000
     49 H          10.8239    9.7880    4.9790 H       1  UNL1        0.0000
     50 H          11.0879    8.9538    6.5216 H       1  UNL1        0.0000
     51 C           7.0680   12.3313    9.0147 C.3     1  UNL1        0.0000
     52 C           7.6317   13.8030    7.5065 C.2     1  UNL1        0.0000
     53 H           8.2710   14.4762    6.9755 H       1  UNL1        0.0000
     54 C           6.3267   13.4989    7.3062 C.2     1  UNL1        0.0000
     55 H           5.6293   13.8600    6.5795 H       1  UNL1        0.0000
     56 C           4.6986   11.9593    8.4212 C.3     1  UNL1        0.0000
     57 H           4.1843   11.9230    7.4631 H       1  UNL1        0.0000
     58 H           4.0933   12.5194    9.1365 H       1  UNL1        0.0000
     59 H           4.8412   10.9485    8.8060 H       1  UNL1        0.0000
     60 C          10.5789   13.2927   11.3192 C.3     1  UNL1        0.0000
     61 H          10.6551   14.3586   11.2628 H       1  UNL1        0.0000
     62 C          11.0795   12.4197   12.2586 C.2     1  UNL1        0.0000
     63 H          11.6492   12.6484   13.1344 H       1  UNL1        0.0000
     64 C          10.6751   11.1685   11.8124 C.2     1  UNL1        0.0000
     65 H          10.8666   10.2131   12.2616 H       1  UNL1        0.0000
     66 B           9.1857    6.6195   11.6144 B       1  UNL1        0.0000
     67 H           8.9736    5.6643   12.2812 H       1  UNL1        0.0000
     68 B           9.5591   13.2159    9.0245 B       1  UNL1        0.0000
     69 H           9.8360   14.3666    9.0483 H       1  UNL1        0.0000
@<TRIPOS>BOND
     1    49    47    1
     2    48    47    1
     3    47    50    1
     4    47    13    1
     5    46    45    1
     6    24    23    1
     7    55    54    1
     8    45    13    1
     9    45    43    2
    10    13    42    1
    11    25    23    1
    12    23    26    1
    13    23     7    1
    14    53    52    1
    15    54    52    2
    16    54    15    1
    17    43    44    1
    18    43    12    1
    19    57    56    1
    20    42     4    1
    21    42    12    1
    22    52    14    1
    23    22    21    1
    24     4     1    1
    25    12    68    1
    26     7    21    1
    27     7    18    1
    28    15    56    1
    29    15    51    1
    30    21    19    2
    31    56    59    1
    32    56    58    1
    33    14    51    1
    34    14    68    1
    35    51     5    1
    36    68    69    1
    37    68    16    1
    38    18     2    1
    39    18     6    1
    40     2     1    1
    41     3     1    1
    42     3    27    1
    43    19    20    1
    44    19     6    1
    45    35    32    1
    46     1     5    1
    47     1    17    1
    48     1    11    1
    49     6    66    1
    50    34    32    1
    51    16    17    1
    52    16    60    1
    53    17    64    1
    54    32     9    1
    55    32    33    1
    56    27     9    1
    57    27     8    1
    58    61    60    1
    59    60    62    1
    60     9    30    1
    61    66     8    1
    62    66    10    1
    63    66    67    1
    64     8    28    1
    65    64    62    2
    66    64    65    1
    67    11    10    1
    68    11    40    1
    69    10    36    1
    70    62    63    1
    71    30    28    2
    72    30    31    1
    73    28    29    1
    74    41    40    1
    75    40    38    2
    76    36    38    1
    77    36    37    1
    78    38    39    1
