@<TRIPOS>MOLECULE
CSD_code = SUYNEH | q = 0 | S = 0 | Stoichiometry = C24H18CoN7O3 | MND = 6
 53 59 0 0 0
SMALL
GASTEIGER

@<TRIPOS>ATOM
      1 CO          3.4440    3.1315    4.4197 Co.oh   1  UNL1        0.0000
      2 N           4.2187    2.5934    2.8379 N.pl3   1  UNL1        0.0000
      3 N           3.4686    1.7140    2.1380 N.2     1  UNL1        0.0000
      4 N           4.1776    1.6770    5.4690 N.pl3   1  UNL1        0.0000
      5 N           2.5558    3.5756    6.0500 N.pl3   1  UNL1        0.0000
      6 N           2.7080    4.5689    3.5118 N.2     1  UNL1        0.0000
      7 N           3.0884    5.2151    2.6101 N.2     1  UNL1        0.0000
      8 N           3.3278    5.9240    1.7588 N.2     1  UNL1        0.0000
      9 O           4.8871    4.1879    4.9431 O.3     1  UNL1        0.0000
     10 O           2.0331    1.9951    3.8686 O.2     1  UNL1        0.0000
     11 O          -1.8366   -0.9705    2.8348 O.3     1  UNL1        0.0000
     12 H          -2.3781   -1.5681    2.3049 H       1  UNL1        0.0000
     13 C           6.2197    3.9242    2.9525 C.ar    1  UNL1        0.0000
     14 C           5.9329    4.4784    4.2351 C.ar    1  UNL1        0.0000
     15 C           6.8675    5.3918    4.7734 C.ar    1  UNL1        0.0000
     16 H           6.6452    5.8119    5.7430 H       1  UNL1        0.0000
     17 C           8.0048    5.7404    4.0927 C.ar    1  UNL1        0.0000
     18 H           8.6944    6.4472    4.5317 H       1  UNL1        0.0000
     19 C           8.2782    5.1966    2.8360 C.ar    1  UNL1        0.0000
     20 H           9.1741    5.4816    2.3061 H       1  UNL1        0.0000
     21 C           7.3953    4.3057    2.2834 C.ar    1  UNL1        0.0000
     22 H           7.5891    3.8808    1.3087 H       1  UNL1        0.0000
     23 C           5.3388    3.0013    2.3266 C.3     1  UNL1        0.0000
     24 H           5.6083    2.6073    1.3501 H       1  UNL1        0.0000
     25 C           2.3323    1.4635    2.7394 C.2     1  UNL1        0.0000
     26 C           1.3908    0.5325    2.0993 C.ar    1  UNL1        0.0000
     27 C           0.2095    0.2058    2.7528 C.ar    1  UNL1        0.0000
     28 H          -0.0124    0.6352    3.7165 H       1  UNL1        0.0000
     29 C          -0.6918   -0.6696    2.1613 C.ar    1  UNL1        0.0000
     30 C          -0.4071   -1.2143    0.9142 C.ar    1  UNL1        0.0000
     31 H          -1.1111   -1.8941    0.4513 H       1  UNL1        0.0000
     32 C           0.7724   -0.8838    0.2665 C.ar    1  UNL1        0.0000
     33 H           0.9814   -1.3105   -0.7032 H       1  UNL1        0.0000
     34 C           1.6738   -0.0162    0.8495 C.ar    1  UNL1        0.0000
     35 H           2.5931    0.2543    0.3577 H       1  UNL1        0.0000
     36 C           5.0336    0.7386    5.0772 C.3     1  UNL1        0.0000
     37 H           5.3223    0.7447    4.0355 H       1  UNL1        0.0000
     38 C           5.5471   -0.2187    5.9315 C.2     1  UNL1        0.0000
     39 H           6.2374   -0.9580    5.5590 H       1  UNL1        0.0000
     40 C           5.1565   -0.2042    7.2639 C.2     1  UNL1        0.0000
     41 H           5.5386   -0.9339    7.9610 H       1  UNL1        0.0000
     42 C           4.2654    0.7667    7.6783 C.2     1  UNL1        0.0000
     43 H           3.9454    0.8042    8.7066 H       1  UNL1        0.0000
     44 C           3.7866    1.6983    6.7584 C.2     1  UNL1        0.0000
     45 C           2.8411    2.7604    7.0803 C.3     1  UNL1        0.0000
     46 C           2.2559    2.9414    8.3332 C.2     1  UNL1        0.0000
     47 H           2.4919    2.2775    9.1489 H       1  UNL1        0.0000
     48 C           1.3647    3.9807    8.5202 C.2     1  UNL1        0.0000
     49 H           0.9018    4.1386    9.4824 H       1  UNL1        0.0000
     50 C           1.0783    4.8117    7.4461 C.2     1  UNL1        0.0000
     51 H           0.3881    5.6337    7.5462 H       1  UNL1        0.0000
     52 C           1.6974    4.5704    6.2324 C.2     1  UNL1        0.0000
     53 H           1.5072    5.1894    5.3671 H       1  UNL1        0.0000
@<TRIPOS>BOND
     1    33    32    1
     2    32    34   ar
     3    32    30   ar
     4    35    34    1
     5    31    30    1
     6    34    26   ar
     7    30    29   ar
     8    22    21    1
     9    24    23    1
    10     8     7    2
    11    26    25    1
    12    26    27   ar
    13     3    25    2
    14     3     2    1
    15    29    27   ar
    16    29    11    1
    17    21    19   ar
    18    21    13   ar
    19    12    11    1
    20    20    19    1
    21    23     2    1
    22    23    13    1
    23     7     6    2
    24    25    10    1
    25    27    28    1
    26    19    17   ar
    27     2     1    1
    28    13    14   ar
    29     6     1    1
    30    10     1    1
    31    37    36    1
    32    17    18    1
    33    17    15   ar
    34    14    15   ar
    35    14     9    1
    36     1     9    1
    37     1     4    1
    38     1     5    1
    39    15    16    1
    40    36     4    1
    41    36    38    1
    42    53    52    1
    43     4    44    1
    44    39    38    1
    45    38    40    2
    46     5    52    1
    47     5    45    1
    48    52    50    2
    49    44    45    1
    50    44    42    2
    51    45    46    1
    52    40    42    1
    53    40    41    1
    54    50    51    1
    55    50    48    1
    56    42    43    1
    57    46    48    2
    58    46    47    1
    59    48    49    1
