@<TRIPOS>MOLECULE
CSD_code = SUYNOR | q = 1 | S = 0 | Stoichiometry = C24H35CoN7O2(1+) | MND = 6
 69 73 0 0 0
SMALL
GASTEIGER

@<TRIPOS>ATOM
      1 CO          1.6173    7.9955    4.3036 Co.oh   1  UNL1        0.0000
      2 N           2.4462    8.6306    2.6657 N.3     1  UNL1        0.0000
      3 N           3.8672   10.9539    4.0450 N.4     1  UNL1        0.0000
      4 H           3.6069   10.0018    4.5353 H       1  UNL1        0.0000
      5 N           0.8278    7.3259    5.8563 N.3     1  UNL1        0.0000
      6 N          -0.0904    7.3094    3.3122 N.4     1  UNL1        0.0000
      7 N           0.7495    9.6301    4.6242 N.2     1  UNL1        0.0000
      8 N           0.5887   10.1664    5.6580 N.2     1  UNL1        0.0000
      9 N           0.3909   10.7983    6.5780 N.2     1  UNL1        0.0000
     10 O           2.4584    6.3035    4.1904 O.3     1  UNL1        0.0000
     11 O           3.1606    8.6943    5.1959 O.3     1  UNL1        0.0000
     12 C           3.5980    6.5543    2.1077 C.ar    1  UNL1        0.0000
     13 C           3.2428    5.8421    3.2940 C.ar    1  UNL1        0.0000
     14 C           3.7808    4.5360    3.4483 C.ar    1  UNL1        0.0000
     15 H           3.5293    3.9993    4.3503 H       1  UNL1        0.0000
     16 C           4.5783    3.9773    2.4933 C.ar    1  UNL1        0.0000
     17 H           4.9670    2.9800    2.6400 H       1  UNL1        0.0000
     18 C           4.9137    4.6661    1.3085 C.ar    1  UNL1        0.0000
     19 C           4.4250    5.9316    1.1407 C.ar    1  UNL1        0.0000
     20 H           4.6713    6.4900    0.2476 H       1  UNL1        0.0000
     21 C           5.7849    4.0029    0.2885 C.3     1  UNL1        0.0000
     22 H           6.7402    3.7223    0.7302 H       1  UNL1        0.0000
     23 H           5.9712    4.6620   -0.5552 H       1  UNL1        0.0000
     24 H           5.3113    3.0933   -0.0791 H       1  UNL1        0.0000
     25 C           3.1883    7.8818    1.8971 C.3     1  UNL1        0.0000
     26 H           3.5675    8.3350    0.9764 H       1  UNL1        0.0000
     27 C           2.3589   10.0227    2.2520 C.3     1  UNL1        0.0000
     28 H           2.2194   10.0907    1.1659 H       1  UNL1        0.0000
     29 H           1.4966   10.4749    2.7400 H       1  UNL1        0.0000
     30 C           3.6421   10.7926    2.5921 C.3     1  UNL1        0.0000
     31 H           4.4930   10.2432    2.1813 H       1  UNL1        0.0000
     32 H           3.6096   11.7834    2.1301 H       1  UNL1        0.0000
     33 C           3.0191   12.0085    4.6163 C.3     1  UNL1        0.0000
     34 H           3.3285   12.9835    4.2391 H       1  UNL1        0.0000
     35 H           3.0989   12.0036    5.7015 H       1  UNL1        0.0000
     36 H           1.9787   11.8418    4.3547 H       1  UNL1        0.0000
     37 C           5.2795   11.2544    4.3110 C.3     1  UNL1        0.0000
     38 H           5.9069   10.4149    4.0166 H       1  UNL1        0.0000
     39 H           5.4227   11.4511    5.3715 H       1  UNL1        0.0000
     40 H           5.5866   12.1385    3.7505 H       1  UNL1        0.0000
     41 C           2.5896    7.9056    7.4066 C.ar    1  UNL1        0.0000
     42 C           3.4654    8.4997    6.4648 C.ar    1  UNL1        0.0000
     43 C           4.7248    8.9134    6.9274 C.ar    1  UNL1        0.0000
     44 H           5.4324    9.3079    6.2150 H       1  UNL1        0.0000
     45 C           5.0877    8.7850    8.2481 C.ar    1  UNL1        0.0000
     46 H           6.0706    9.1098    8.5566 H       1  UNL1        0.0000
     47 C           4.2165    8.2397    9.1927 C.ar    1  UNL1        0.0000
     48 C           2.9873    7.8021    8.7493 C.ar    1  UNL1        0.0000
     49 H           2.3008    7.3538    9.4530 H       1  UNL1        0.0000
     50 C           4.6026    8.1246   10.6339 C.3     1  UNL1        0.0000
     51 H           3.9972    8.7973   11.2405 H       1  UNL1        0.0000
     52 H           5.6489    8.3794   10.7782 H       1  UNL1        0.0000
     53 H           4.4363    7.1118   10.9959 H       1  UNL1        0.0000
     54 C           1.3233    7.3624    7.0380 C.3     1  UNL1        0.0000
     55 H           0.7488    6.9227    7.8550 H       1  UNL1        0.0000
     56 C          -0.4239    6.6318    5.6426 C.3     1  UNL1        0.0000
     57 H          -1.0869    6.7342    6.5091 H       1  UNL1        0.0000
     58 H          -0.2068    5.5669    5.5017 H       1  UNL1        0.0000
     59 C          -1.0812    7.2136    4.3993 C.3     1  UNL1        0.0000
     60 H          -1.9401    6.6051    4.0920 H       1  UNL1        0.0000
     61 H          -1.4324    8.2220    4.6289 H       1  UNL1        0.0000
     62 C          -0.6138    8.2248    2.2923 C.3     1  UNL1        0.0000
     63 H          -1.5926    7.8838    1.9402 H       1  UNL1        0.0000
     64 H           0.0655    8.2617    1.4442 H       1  UNL1        0.0000
     65 H          -0.7164    9.2237    2.7087 H       1  UNL1        0.0000
     66 C           0.0663    5.9949    2.6796 C.3     1  UNL1        0.0000
     67 H           0.4184    5.2595    3.3973 H       1  UNL1        0.0000
     68 H           0.7952    6.0561    1.8737 H       1  UNL1        0.0000
     69 H          -0.8891    5.6572    2.2636 H       1  UNL1        0.0000
@<TRIPOS>BOND
     1    23    21    1
     2    24    21    1
     3    20    19    1
     4    21    22    1
     5    21    18    1
     6    26    25    1
     7    19    18   ar
     8    19    12   ar
     9    28    27    1
    10    18    16   ar
    11    64    62    1
    12    68    66    1
    13    25    12    1
    14    25     2    1
    15    63    62    1
    16    12    13   ar
    17    32    30    1
    18    31    30    1
    19    27    30    1
    20    27     2    1
    21    27    29    1
    22    69    66    1
    23    62    65    1
    24    62     6    1
    25    16    17    1
    26    16    14   ar
    27    30     3    1
    28     2     1    1
    29    66     6    1
    30    66    67    1
    31    13    14   ar
    32    13    10    1
    33     6     1    1
    34     6    59    1
    35    14    15    1
    36    40    37    1
    37    38    37    1
    38     3    37    1
    39     3     4    1
    40     3    33    1
    41    60    59    1
    42    10     1    1
    43    34    33    1
    44     1     7    1
    45     1    11    1
    46     1     5    1
    47    37    39    1
    48    36    33    1
    49    59    61    1
    50    59    56    1
    51    33    35    1
    52     7     8    2
    53    11    42    1
    54    58    56    1
    55    56     5    1
    56    56    57    1
    57     8     9    2
    58     5    54    1
    59    44    43    1
    60    42    43   ar
    61    42    41   ar
    62    43    45   ar
    63    54    41    1
    64    54    55    1
    65    41    48   ar
    66    45    46    1
    67    45    47   ar
    68    48    47   ar
    69    48    49    1
    70    47    50    1
    71    50    52    1
    72    50    53    1
    73    50    51    1
