@<TRIPOS>MOLECULE
CSD_code = TAFDAI | q = 0 | S = 0 | Stoichiometry = C36H41ClCoN2P3Si | MND = 6
 85 92 0 0 0
SMALL
GASTEIGER

@<TRIPOS>ATOM
      1 CO          8.8674    3.8858   12.7488 Co.oh   1  UNL1        0.0000
      2 P           7.1164    3.7709   14.1322 P.3     1  UNL1        0.0000
      3 CL          9.1648    1.8107   13.5214 Cl      1  UNL1        0.0000
      4 P          11.0493    3.9783   12.3304 P.3     1  UNL1        0.0000
      5 SI          9.7146    4.6849   14.6851 Si      1  UNL1        0.0000
      6 P           7.9576    3.1112   10.8333 P.3     1  UNL1        0.0000
      7 C           5.7781    2.5639   13.8353 C.ar    1  UNL1        0.0000
      8 C           6.1245    5.2673   14.4821 C.ar    1  UNL1        0.0000
      9 C           9.9450    3.0635   16.6866 C.ar    1  UNL1        0.0000
     10 C           4.9806    0.2918   13.7850 C.ar    1  UNL1        0.0000
     11 H           5.1428   -0.7568   13.9877 H       1  UNL1        0.0000
     12 C          11.2244    3.1406   16.1089 C.ar    1  UNL1        0.0000
     13 C           5.9730    1.2081   14.0857 C.ar    1  UNL1        0.0000
     14 H           6.9106    0.8632   14.4959 H       1  UNL1        0.0000
     15 C           4.5796    2.9781   13.2555 C.ar    1  UNL1        0.0000
     16 H           4.4166    4.0287   13.0541 H       1  UNL1        0.0000
     17 C          11.6337    5.6560   11.9628 C.ar    1  UNL1        0.0000
     18 C          11.9605    2.9699   11.1087 C.ar    1  UNL1        0.0000
     19 C           3.5912    2.0590   12.9564 C.ar    1  UNL1        0.0000
     20 H           2.6642    2.3941   12.5134 H       1  UNL1        0.0000
     21 C           4.6634    7.5547   15.0881 C.ar    1  UNL1        0.0000
     22 H           4.0962    8.4425   15.3266 H       1  UNL1        0.0000
     23 C           4.3437    6.3470   15.6899 C.ar    1  UNL1        0.0000
     24 H           3.5260    6.2933   16.3942 H       1  UNL1        0.0000
     25 C          12.0410    1.5889   17.7337 C.ar    1  UNL1        0.0000
     26 H          12.8555    1.0098   18.1437 H       1  UNL1        0.0000
     27 C           6.4324    6.4777   13.8784 C.ar    1  UNL1        0.0000
     28 H           7.2476    6.5170   13.1704 H       1  UNL1        0.0000
     29 C           5.0677    5.2095   15.3897 C.ar    1  UNL1        0.0000
     30 H           4.8043    4.2659   15.8502 H       1  UNL1        0.0000
     31 C          12.2661    2.3963   16.6264 C.ar    1  UNL1        0.0000
     32 H          13.2437    2.4378   16.1679 H       1  UNL1        0.0000
     33 C           5.7058    7.6173   14.1803 C.ar    1  UNL1        0.0000
     34 H           5.9556    8.5554   13.7063 H       1  UNL1        0.0000
     35 C           9.7268    2.2459   17.7796 C.ar    1  UNL1        0.0000
     36 H           8.7410    2.1729   18.2164 H       1  UNL1        0.0000
     37 C          13.7453    2.5959    9.5468 C.ar    1  UNL1        0.0000
     38 H          14.6095    2.9619    9.0113 H       1  UNL1        0.0000
     39 C          13.0738    3.4359   10.4177 C.ar    1  UNL1        0.0000
     40 H          13.4142    4.4517   10.5593 H       1  UNL1        0.0000
     41 C           3.7878    0.7133   13.2221 C.ar    1  UNL1        0.0000
     42 H           3.0145   -0.0034   12.9877 H       1  UNL1        0.0000
     43 C          11.5407    1.6550   10.9264 C.ar    1  UNL1        0.0000
     44 H          10.6835    1.2965   11.4800 H       1  UNL1        0.0000
     45 C          11.3814    6.1619   10.6901 C.ar    1  UNL1        0.0000
     46 H          10.9022    5.5234    9.9602 H       1  UNL1        0.0000
     47 C          12.2256    6.4740   12.9169 C.ar    1  UNL1        0.0000
     48 H          12.3960    6.1049   13.9168 H       1  UNL1        0.0000
     49 C          12.2158    0.8195   10.0564 C.ar    1  UNL1        0.0000
     50 H          11.8845   -0.1998    9.9200 H       1  UNL1        0.0000
     51 C          10.7843    1.5151   18.3038 C.ar    1  UNL1        0.0000
     52 H          10.6165    0.8784   19.1604 H       1  UNL1        0.0000
     53 C          12.5856    7.7702   12.5885 C.ar    1  UNL1        0.0000
     54 H          13.0498    8.4010   13.3328 H       1  UNL1        0.0000
     55 C          13.3178    1.2913    9.3615 C.ar    1  UNL1        0.0000
     56 H          13.8459    0.6422    8.6784 H       1  UNL1        0.0000
     57 C          11.7426    7.4548   10.3653 C.ar    1  UNL1        0.0000
     58 H          11.5499    7.8380    9.3735 H       1  UNL1        0.0000
     59 C          12.3501    8.2612   11.3155 C.ar    1  UNL1        0.0000
     60 H          12.6333    9.2729   11.0644 H       1  UNL1        0.0000
     61 N           8.9951    3.8363   16.0413 N.pl3   1  UNL1        0.0000
     62 N          11.2973    3.9709   14.9932 N.pl3   1  UNL1        0.0000
     63 C          12.0161    3.5172   13.8404 C.3     1  UNL1        0.0000
     64 H          12.1084    2.4201   13.8409 H       1  UNL1        0.0000
     65 H          13.0297    3.9396   13.7573 H       1  UNL1        0.0000
     66 C           7.6557    3.3733   15.8763 C.3     1  UNL1        0.0000
     67 H           6.9619    3.8736   16.5685 H       1  UNL1        0.0000
     68 H           7.5925    2.2903   16.0436 H       1  UNL1        0.0000
     69 C           6.3712    3.8877   10.3409 C.3     1  UNL1        0.0000
     70 H           6.5026    4.9673   10.3065 H       1  UNL1        0.0000
     71 H           5.6103    3.6494   11.0807 H       1  UNL1        0.0000
     72 H           6.0577    3.5217    9.3634 H       1  UNL1        0.0000
     73 C           7.5090    1.3415   10.6941 C.3     1  UNL1        0.0000
     74 H           6.8370    1.0800   11.5101 H       1  UNL1        0.0000
     75 H           8.4063    0.7325   10.7793 H       1  UNL1        0.0000
     76 H           7.0223    1.1539    9.7375 H       1  UNL1        0.0000
     77 C           8.8827    3.3490    9.2651 C.3     1  UNL1        0.0000
     78 H           8.3270    2.9131    8.4350 H       1  UNL1        0.0000
     79 H           9.8642    2.8830    9.3319 H       1  UNL1        0.0000
     80 H           9.0062    4.4176    9.0979 H       1  UNL1        0.0000
     81 C           9.7380    6.5475   15.1826 C.3     1  UNL1        0.0000
     82 H           8.7545    6.8426   15.5281 H       1  UNL1        0.0000
     83 H          10.0131    7.1874   14.3541 H       1  UNL1        0.0000
     84 H          10.4448    6.6991   15.9899 H       1  UNL1        0.0000
     85 H           8.6580    5.2123   12.2372 H       1  UNL1        0.0000
@<TRIPOS>BOND
     1    78    77    1
     2    56    55    1
     3    38    37    1
     4    80    77    1
     5    77    79    1
     6    77     6    1
     7    55    37   ar
     8    55    49   ar
     9    72    69    1
    10    58    57    1
    11    37    39   ar
    12    76    73    1
    13    50    49    1
    14    46    45    1
    15    49    43   ar
    16    70    69    1
    17    69     6    1
    18    69    71    1
    19    57    45   ar
    20    57    59   ar
    21    39    40    1
    22    39    18   ar
    23    45    17   ar
    24    73    75    1
    25    73     6    1
    26    73    74    1
    27     6     1    1
    28    43    18   ar
    29    43    44    1
    30    60    59    1
    31    18     4    1
    32    59    53   ar
    33    17     4    1
    34    17    47   ar
    35    85     1    1
    36     4     1    1
    37     4    63    1
    38    20    19    1
    39    53    47   ar
    40    53    54    1
    41     1     3    1
    42     1     2    1
    43     1     5    1
    44    47    48    1
    45    19    41   ar
    46    19    15   ar
    47    42    41    1
    48    16    15    1
    49    28    27    1
    50    41    10   ar
    51    15     7   ar
    52    34    33    1
    53    65    63    1
    54    10    11    1
    55    10    13   ar
    56     7    13   ar
    57     7     2    1
    58    63    64    1
    59    63    62    1
    60    27    33   ar
    61    27     8   ar
    62    13    14    1
    63     2     8    1
    64     2    66    1
    65    33    21   ar
    66    83    81    1
    67     8    29   ar
    68     5    62    1
    69     5    81    1
    70     5    61    1
    71    62    12    1
    72    21    22    1
    73    21    23   ar
    74    81    82    1
    75    81    84    1
    76    29    23   ar
    77    29    30    1
    78    23    24    1
    79    66    61    1
    80    66    68    1
    81    66    67    1
    82    61     9    1
    83    12    31   ar
    84    12     9   ar
    85    32    31    1
    86    31    25   ar
    87     9    35   ar
    88    25    26    1
    89    25    51   ar
    90    35    36    1
    91    35    51   ar
    92    51    52    1
