@<TRIPOS>MOLECULE
CSD_code = TEHLEA | q = 1 | S = 0 | Stoichiometry = C36H26CoN8O2(1+) | MND = 6
 73 82 0 0 0
SMALL
GASTEIGER

@<TRIPOS>ATOM
      1 CO          0.8780    3.1048    9.0019 Co.oh   1  UNL1        0.0000
      2 N           1.7543    1.3542    9.3983 N.pl3   1  UNL1        0.0000
      3 N           0.5332    2.3898    7.2773 N.pl3   1  UNL1        0.0000
      4 N           0.8686    3.6262   10.9298 N.pl3   1  UNL1        0.0000
      5 O           4.8406    2.9293    8.6750 O.2     1  UNL1        0.0000
      6 N          -0.8397    2.4884    9.4143 N.am    1  UNL1        0.0000
      7 N           0.4473    4.9193    8.6466 N.pl3   1  UNL1        0.0000
      8 O          -2.4295    2.3504   11.0832 O.2     1  UNL1        0.0000
      9 C           3.0780    1.4031    9.1831 C.3     1  UNL1        0.0000
     10 C          -0.6369    1.6476    7.2682 C.ar    1  UNL1        0.0000
     11 N           2.6469    3.6482    8.7270 N.am    1  UNL1        0.0000
     12 C          -1.4152    1.7211    8.4471 C.ar    1  UNL1        0.0000
     13 C           1.8184    4.1971   11.6654 C.3     1  UNL1        0.0000
     14 H           2.7726    4.3750   11.1891 H       1  UNL1        0.0000
     15 C           3.6481    2.7420    8.8210 C.2     1  UNL1        0.0000
     16 C           3.9004    0.2950    9.3292 C.2     1  UNL1        0.0000
     17 H           4.9562    0.4154    9.1411 H       1  UNL1        0.0000
     18 C          -2.8790    5.2117    9.4737 C.ar    1  UNL1        0.0000
     19 H          -2.6174    5.7225   10.3875 H       1  UNL1        0.0000
     20 N           1.2664    2.2910    6.2731 N.pl3   1  UNL1        0.0000
     21 C           4.0164    5.7060    8.5164 C.ar    1  UNL1        0.0000
     22 H           4.9506    5.1693    8.5269 H       1  UNL1        0.0000
     23 C          -0.3218    3.3878   11.5017 C.2     1  UNL1        0.0000
     24 C          -1.3425    2.6875   10.6553 C.2     1  UNL1        0.0000
     25 N          -0.6431    5.5230    8.6900 N.pl3   1  UNL1        0.0000
     26 C          -2.6259    1.0222    8.5119 C.ar    1  UNL1        0.0000
     27 H          -3.2219    1.0791    9.4077 H       1  UNL1        0.0000
     28 C           2.3279    3.0931    5.9508 C.ar    1  UNL1        0.0000
     29 C           3.3384   -0.9109    9.7095 C.2     1  UNL1        0.0000
     30 H           3.9477   -1.7935    9.8267 H       1  UNL1        0.0000
     31 C           2.8145    4.9942    8.6027 C.ar    1  UNL1        0.0000
     32 C           2.7643    7.7738    8.3752 C.ar    1  UNL1        0.0000
     33 H           2.7671    8.8480    8.2809 H       1  UNL1        0.0000
     34 C          -0.5979    3.7212   12.8201 C.2     1  UNL1        0.0000
     35 H          -1.5785    3.4936   13.2089 H       1  UNL1        0.0000
     36 C           1.9711   -0.9549    9.9411 C.2     1  UNL1        0.0000
     37 H           1.4856   -1.8676   10.2465 H       1  UNL1        0.0000
     38 C          -4.4797    4.0849    8.0845 C.ar    1  UNL1        0.0000
     39 H          -5.4846    3.7294    7.9212 H       1  UNL1        0.0000
     40 C          -3.5125    3.9012    7.1103 C.ar    1  UNL1        0.0000
     41 H          -3.7622    3.4136    6.1802 H       1  UNL1        0.0000
     42 C          -1.8878    4.9796    8.5161 C.ar    1  UNL1        0.0000
     43 C           1.5895    5.7014    8.5844 C.ar    1  UNL1        0.0000
     44 C           1.5716    7.0969    8.4621 C.ar    1  UNL1        0.0000
     45 H           0.6239    7.6114    8.4364 H       1  UNL1        0.0000
     46 C           1.2189    0.1962    9.7745 C.2     1  UNL1        0.0000
     47 H           0.1522    0.1785    9.9497 H       1  UNL1        0.0000
     48 C          -2.2185    4.3340    7.3198 C.ar    1  UNL1        0.0000
     49 H          -1.4686    4.2257    6.5497 H       1  UNL1        0.0000
     50 C           1.6215    4.5610   12.9872 C.2     1  UNL1        0.0000
     51 H           2.4258    5.0224   13.5370 H       1  UNL1        0.0000
     52 C          -3.0367    0.2897    7.4206 C.ar    1  UNL1        0.0000
     53 H          -3.9736   -0.2438    7.4666 H       1  UNL1        0.0000
     54 C           3.9767    7.0779    8.4036 C.ar    1  UNL1        0.0000
     55 H           4.9025    7.6274    8.3301 H       1  UNL1        0.0000
     56 C           4.6099    3.3043    5.2310 C.ar    1  UNL1        0.0000
     57 H           5.5690    2.8545    5.0286 H       1  UNL1        0.0000
     58 C           2.1484    4.4689    5.7709 C.ar    1  UNL1        0.0000
     59 H           1.1728    4.9032    5.9344 H       1  UNL1        0.0000
     60 C           3.5606    2.5104    5.6433 C.ar    1  UNL1        0.0000
     61 H           3.6855    1.4465    5.7728 H       1  UNL1        0.0000
     62 C           0.3889    4.3254   13.5790 C.2     1  UNL1        0.0000
     63 H           0.2062    4.6031   14.6054 H       1  UNL1        0.0000
     64 C          -1.0766    0.9017    6.1669 C.ar    1  UNL1        0.0000
     65 H          -0.4716    0.8734    5.2744 H       1  UNL1        0.0000
     66 C          -4.1583    4.7421    9.2632 C.ar    1  UNL1        0.0000
     67 H          -4.9109    4.8925   10.0209 H       1  UNL1        0.0000
     68 C           4.4354    4.6713    5.0716 C.ar    1  UNL1        0.0000
     69 H           5.2567    5.2853    4.7381 H       1  UNL1        0.0000
     70 C          -2.2709    0.2274    6.2524 C.ar    1  UNL1        0.0000
     71 H          -2.6231   -0.3508    5.4130 H       1  UNL1        0.0000
     72 C           3.1998    5.2440    5.3241 C.ar    1  UNL1        0.0000
     73 H           3.0501    6.3028    5.1771 H       1  UNL1        0.0000
@<TRIPOS>BOND
     1    69    68    1
     2    57    56    1
     3    68    56   ar
     4    68    72   ar
     5    73    72    1
     6    56    60   ar
     7    65    64    1
     8    72    58   ar
     9    71    70    1
    10    60    61    1
    11    60    28   ar
    12    58    59    1
    13    58    28   ar
    14    28    20    1
    15    64    70   ar
    16    64    10   ar
    17    41    40    1
    18    70    52   ar
    19    20     3    1
    20    49    48    1
    21    40    48   ar
    22    40    38   ar
    23    10     3    1
    24    10    12   ar
    25     3     1    1
    26    48    42   ar
    27    52    53    1
    28    52    26   ar
    29    39    38    1
    30    38    66   ar
    31    33    32    1
    32    55    54    1
    33    32    54   ar
    34    32    44   ar
    35    54    21   ar
    36    45    44    1
    37    12    26   ar
    38    12     6    1
    39    44    43   ar
    40    26    27    1
    41    42    25    1
    42    42    18   ar
    43    21    22    1
    44    21    31   ar
    45    43    31   ar
    46    43     7    1
    47    31    11    1
    48     7    25    1
    49     7     1    1
    50     5    15    2
    51    11    15   am
    52    11     1    1
    53    15     9    1
    54     1     2    1
    55     1     6    1
    56     1     4    1
    57    17    16    1
    58     9    16    1
    59     9     2    1
    60    66    18   ar
    61    66    67    1
    62    16    29    2
    63     2    46    1
    64     6    24   am
    65    18    19    1
    66    29    30    1
    67    29    36    1
    68    46    36    2
    69    46    47    1
    70    36    37    1
    71    24     8    2
    72    24    23    1
    73     4    23    1
    74     4    13    1
    75    14    13    1
    76    23    34    2
    77    13    50    1
    78    34    35    1
    79    34    62    1
    80    50    51    1
    81    50    62    2
    82    62    63    1
