@<TRIPOS>MOLECULE
CSD_code = TODZUJ | q = 0 | S = 0 | Stoichiometry = C17H23CoN12O | MND = 6
 54 57 0 0 0
SMALL
GASTEIGER

@<TRIPOS>ATOM
      1 CO          5.0748    2.5557    7.8180 Co.oh   1  UNL1        0.0000
      2 N           3.2617    2.5892    8.1926 N.2     1  UNL1        0.0000
      3 N           2.4731    1.7755    8.5035 N.2     1  UNL1        0.0000
      4 N           1.5853    1.1411    8.8060 N.2     1  UNL1        0.0000
      5 N           5.4009    1.5937    9.3631 N.2     1  UNL1        0.0000
      6 N           5.0311    0.5533    9.7615 N.2     1  UNL1        0.0000
      7 N           4.8036   -0.4174   10.2999 N.2     1  UNL1        0.0000
      8 N           4.9085    1.0198    6.8120 N.2     1  UNL1        0.0000
      9 N           4.1914    0.7421    5.9272 N.2     1  UNL1        0.0000
     10 N           3.6109    0.3782    5.0220 N.2     1  UNL1        0.0000
     11 N           5.4366    4.2095    8.7964 N.pl3   1  UNL1        0.0000
     12 N           7.2091    2.6172    7.5484 N.4     1  UNL1        0.0000
     13 N           4.7196    3.6389    6.0480 N.pl3   1  UNL1        0.0000
     14 O           6.5280    7.6955   10.7602 O.2     1  UNL1        0.0000
     15 C           4.5215    5.1035    9.1484 C.3     1  UNL1        0.0000
     16 H           3.4970    4.8527    8.9158 H       1  UNL1        0.0000
     17 C           4.8119    6.2870    9.8071 C.2     1  UNL1        0.0000
     18 C           6.1513    6.5344   10.1252 C.2     1  UNL1        0.0000
     19 C           7.1292    5.6032    9.7544 C.2     1  UNL1        0.0000
     20 C           6.7171    4.4504    9.0899 C.2     1  UNL1        0.0000
     21 C           8.5693    5.8513   10.0854 C.3     1  UNL1        0.0000
     22 H           8.9462    5.0827   10.7586 H       1  UNL1        0.0000
     23 H           8.6735    6.8230   10.5600 H       1  UNL1        0.0000
     24 H           9.1810    5.8460    9.1843 H       1  UNL1        0.0000
     25 C           6.3179    7.6995   12.1614 C.3     1  UNL1        0.0000
     26 H           5.2690    7.5311   12.4170 H       1  UNL1        0.0000
     27 H           6.6234    8.6856   12.5054 H       1  UNL1        0.0000
     28 H           6.9295    6.9344   12.6512 H       1  UNL1        0.0000
     29 C           3.7225    7.2543   10.1476 C.3     1  UNL1        0.0000
     30 H           2.9606    7.2513    9.3720 H       1  UNL1        0.0000
     31 H           4.1263    8.2590   10.2483 H       1  UNL1        0.0000
     32 H           3.2422    6.9732   11.0851 H       1  UNL1        0.0000
     33 C           7.6727    3.3497    8.7314 C.3     1  UNL1        0.0000
     34 H           8.6925    3.7271    8.5782 H       1  UNL1        0.0000
     35 H           7.6852    2.6543    9.5766 H       1  UNL1        0.0000
     36 C           7.8650    1.3092    7.5225 C.3     1  UNL1        0.0000
     37 H           7.5367    0.7352    6.6608 H       1  UNL1        0.0000
     38 H           7.5860    0.7476    8.4104 H       1  UNL1        0.0000
     39 H           8.9560    1.4200    7.4878 H       1  UNL1        0.0000
     40 C           7.5747    3.3779    6.3519 C.3     1  UNL1        0.0000
     41 H           8.6620    3.3007    6.1891 H       1  UNL1        0.0000
     42 H           7.3338    4.4324    6.5220 H       1  UNL1        0.0000
     43 C           6.8482    2.9058    5.0932 C.3     1  UNL1        0.0000
     44 H           7.4371    3.1728    4.2142 H       1  UNL1        0.0000
     45 H           6.7507    1.8181    5.1065 H       1  UNL1        0.0000
     46 C           5.4778    3.4998    4.9571 C.3     1  UNL1        0.0000
     47 C           5.0326    3.8887    3.6973 C.2     1  UNL1        0.0000
     48 H           5.6708    3.7368    2.8407 H       1  UNL1        0.0000
     49 C           3.7785    4.4490    3.5515 C.2     1  UNL1        0.0000
     50 H           3.4110    4.7380    2.5790 H       1  UNL1        0.0000
     51 C           3.0140    4.6317    4.6919 C.2     1  UNL1        0.0000
     52 H           2.0330    5.0756    4.6460 H       1  UNL1        0.0000
     53 C           3.5243    4.2120    5.9047 C.2     1  UNL1        0.0000
     54 H           2.9350    4.3114    6.8031 H       1  UNL1        0.0000
@<TRIPOS>BOND
     1    50    49    1
     2    48    47    1
     3    49    47    2
     4    49    51    1
     5    47    46    1
     6    44    43    1
     7    52    51    1
     8    51    53    2
     9    46    43    1
    10    46    13    1
    11    10     9    2
    12    43    45    1
    13    43    40    1
    14    53    13    1
    15    53    54    1
    16     9     8    2
    17    13     1    1
    18    41    40    1
    19    40    42    1
    20    40    12    1
    21    37    36    1
    22     8     1    1
    23    39    36    1
    24    36    12    1
    25    36    38    1
    26    12     1    1
    27    12    33    1
    28     1     2    1
    29     1    11    1
    30     1     5    1
    31     2     3    2
    32     3     4    2
    33    34    33    1
    34    33    20    1
    35    33    35    1
    36    11    20    1
    37    11    15    1
    38    16    15    1
    39    20    19    2
    40    15    17    1
    41    24    21    1
    42     5     6    2
    43    30    29    1
    44    19    21    1
    45    19    18    1
    46     6     7    2
    47    17    18    2
    48    17    29    1
    49    21    23    1
    50    21    22    1
    51    18    14    1
    52    29    31    1
    53    29    32    1
    54    14    25    1
    55    25    26    1
    56    25    27    1
    57    25    28    1
