@<TRIPOS>MOLECULE
CSD_code = TOPMUI | q = 1 | S = 0 | Stoichiometry = C30H22Cl4CoN4O4(1+) | MND = 6
 65 72 0 0 0
SMALL
GASTEIGER

@<TRIPOS>ATOM
      1 CO         -1.2261    9.1292   14.4409 Co.oh   1  UNL1        0.0000
      2 CL         -5.2014    7.6830   16.1877 Cl      1  UNL1        0.0000
      3 CL         -7.7371   11.7756   13.7808 Cl      1  UNL1        0.0000
      4 CL         -4.7984    9.0409   11.5729 Cl      1  UNL1        0.0000
      5 CL         -1.6429   10.8461    7.6023 Cl      1  UNL1        0.0000
      6 N          -0.2688    9.6932   15.9554 N.3     1  UNL1        0.0000
      7 N          -1.4637   10.9620   14.0803 N.pl3   1  UNL1        0.0000
      8 N          -1.0073    7.2862   14.8580 N.3     1  UNL1        0.0000
      9 N           0.3070    8.9480   13.3301 N.pl3   1  UNL1        0.0000
     10 O          -0.4624    8.9687   17.1194 O.3     1  UNL1        0.0000
     11 H          -1.3777    8.6374   17.0895 H       1  UNL1        0.0000
     12 O          -2.8210    9.1236   15.4671 O.3     1  UNL1        0.0000
     13 O          -2.1521    6.5551   15.0291 O.3     1  UNL1        0.0000
     14 H          -2.8956    7.1948   15.0803 H       1  UNL1        0.0000
     15 O          -2.3070    8.6912   12.9786 O.3     1  UNL1        0.0000
     16 C           1.2943   10.9863   17.2774 C.3     1  UNL1        0.0000
     17 H           0.7039   10.6697   18.1354 H       1  UNL1        0.0000
     18 H           1.5220   12.0450   17.3531 H       1  UNL1        0.0000
     19 H           2.2250   10.4183   17.2989 H       1  UNL1        0.0000
     20 C           0.5571   10.6779   16.0211 C.3     1  UNL1        0.0000
     21 C           0.7572   11.5157   14.8378 C.ar    1  UNL1        0.0000
     22 C          -0.2750   11.6752   13.8897 C.ar    1  UNL1        0.0000
     23 C          -0.0973   12.5206   12.8000 C.ar    1  UNL1        0.0000
     24 H          -0.8890   12.6183   12.0722 H       1  UNL1        0.0000
     25 C           1.0975   13.1977   12.6308 C.ar    1  UNL1        0.0000
     26 H           1.2293   13.8424   11.7763 H       1  UNL1        0.0000
     27 C           2.1190   13.0459   13.5557 C.ar    1  UNL1        0.0000
     28 H           3.0504   13.5732   13.4234 H       1  UNL1        0.0000
     29 C           1.9464   12.2207   14.6520 C.ar    1  UNL1        0.0000
     30 H           2.7504   12.1037   15.3609 H       1  UNL1        0.0000
     31 C          -2.6117   11.5543   13.9913 C.3     1  UNL1        0.0000
     32 H          -2.6352   12.6034   13.6987 H       1  UNL1        0.0000
     33 C          -3.8562   10.9508   14.3112 C.ar    1  UNL1        0.0000
     34 C          -3.8826    9.7280   15.0414 C.ar    1  UNL1        0.0000
     35 C          -5.1583    9.1881   15.3426 C.ar    1  UNL1        0.0000
     36 C          -6.3223    9.8060   14.9583 C.ar    1  UNL1        0.0000
     37 H          -7.2768    9.3577   15.1853 H       1  UNL1        0.0000
     38 C          -6.2677   11.0166   14.2562 C.ar    1  UNL1        0.0000
     39 C          -5.0571   11.5853   13.9447 C.ar    1  UNL1        0.0000
     40 H          -5.0195   12.5092   13.3898 H       1  UNL1        0.0000
     41 C           0.0937    5.1700   15.2137 C.3     1  UNL1        0.0000
     42 H          -0.0597    4.9907   16.2782 H       1  UNL1        0.0000
     43 H           1.0207    4.7023   14.8995 H       1  UNL1        0.0000
     44 H          -0.7465    4.7153   14.6911 H       1  UNL1        0.0000
     45 C           0.0994    6.6358   14.9455 C.3     1  UNL1        0.0000
     46 C           1.3684    7.3475   14.7917 C.ar    1  UNL1        0.0000
     47 C           1.4673    8.4791   13.9600 C.ar    1  UNL1        0.0000
     48 C           2.6988    9.0981   13.7710 C.ar    1  UNL1        0.0000
     49 H           2.7628    9.9603   13.1241 H       1  UNL1        0.0000
     50 C           3.8222    8.6338   14.4308 C.ar    1  UNL1        0.0000
     51 H           4.7699    9.1278   14.2850 H       1  UNL1        0.0000
     52 C           3.7277    7.5388   15.2755 C.ar    1  UNL1        0.0000
     53 H           4.6009    7.1817   15.7977 H       1  UNL1        0.0000
     54 C           2.5160    6.8945   15.4417 C.ar    1  UNL1        0.0000
     55 H           2.4538    6.0424   16.0991 H       1  UNL1        0.0000
     56 C           0.3184    9.1925   12.0569 C.3     1  UNL1        0.0000
     57 H           1.2601    9.0956   11.5183 H       1  UNL1        0.0000
     58 C          -0.8303    9.4977   11.2837 C.ar    1  UNL1        0.0000
     59 C          -2.1211    9.1857   11.8109 C.ar    1  UNL1        0.0000
     60 C          -3.2337    9.4023   10.9487 C.ar    1  UNL1        0.0000
     61 C          -3.0829    9.9067    9.6824 C.ar    1  UNL1        0.0000
     62 H          -3.9489   10.0753    9.0623 H       1  UNL1        0.0000
     63 C          -1.8026   10.2062    9.1942 C.ar    1  UNL1        0.0000
     64 C          -0.6935    9.9915    9.9723 C.ar    1  UNL1        0.0000
     65 H           0.2904   10.2165    9.5925 H       1  UNL1        0.0000
@<TRIPOS>BOND
     1     5    63    1
     2    62    61    1
     3    63    61   ar
     4    63    64   ar
     5    65    64    1
     6    61    60   ar
     7    64    58   ar
     8    60     4    1
     9    60    59   ar
    10    58    59   ar
    11    58    56    1
    12    57    56    1
    13    26    25    1
    14    59    15    1
    15    56     9    1
    16    24    23    1
    17    25    23   ar
    18    25    27   ar
    19    23    22   ar
    20    15     1    1
    21    49    48    1
    22     9    47    1
    23     9     1    1
    24    40    39    1
    25    28    27    1
    26    27    29   ar
    27    32    31    1
    28    48    47   ar
    29    48    50   ar
    30     3    38    1
    31    22     7    1
    32    22    21   ar
    33    39    38   ar
    34    39    33   ar
    35    47    46   ar
    36    31     7    1
    37    31    33    1
    38     7     1    1
    39    38    36   ar
    40    51    50    1
    41    33    34   ar
    42    50    52   ar
    43     1     8    1
    44     1    12    1
    45     1     6    1
    46    29    21   ar
    47    29    30    1
    48    44    41    1
    49    46    45    1
    50    46    54   ar
    51    21    20    1
    52     8    45    1
    53     8    13    1
    54    43    41    1
    55    45    41    1
    56    36    37    1
    57    36    35   ar
    58    13    14    1
    59    34    35   ar
    60    34    12    1
    61    41    42    1
    62    52    54   ar
    63    52    53    1
    64    35     2    1
    65    54    55    1
    66     6    20    1
    67     6    10    1
    68    20    16    1
    69    11    10    1
    70    16    19    1
    71    16    18    1
    72    16    17    1
