@<TRIPOS>MOLECULE
CSD_code = TOSZUW | q = 0 | S = 0 | Stoichiometry = C35H33CoP2S3 | MND = 5
 74 82 0 0 0
SMALL
GASTEIGER

@<TRIPOS>ATOM
      1 CO         -5.2825   12.9993   11.9044 Co.oh   1  UNL1        0.0000
      2 S          -4.6623   12.8397    9.6914 S.3     1  UNL1        0.0000
      3 S          -6.0830   14.9902   11.4544 S.3     1  UNL1        0.0000
      4 S          -6.4874   12.9296   13.7111 S.3     1  UNL1        0.0000
      5 P          -3.2569   13.7240   11.6526 P.3     1  UNL1        0.0000
      6 P          -4.7257   10.9211   12.2353 P.3     1  UNL1        0.0000
      7 C          -1.9786   12.5627   10.9731 C.3     1  UNL1        0.0000
      8 H          -1.4911   13.0797   10.1404 H       1  UNL1        0.0000
      9 H          -1.2336   12.3969   11.7563 H       1  UNL1        0.0000
     10 C          -3.0584   10.3845   11.6494 C.3     1  UNL1        0.0000
     11 H          -2.3681   10.4419   12.4953 H       1  UNL1        0.0000
     12 H          -3.1394    9.3353   11.3466 H       1  UNL1        0.0000
     13 C          -3.5764   11.4119    9.4080 C.3     1  UNL1        0.0000
     14 H          -4.1933   10.5155    9.3136 H       1  UNL1        0.0000
     15 H          -3.1078   11.6154    8.4434 H       1  UNL1        0.0000
     16 C          -2.5042   11.2118   10.4830 C.3     1  UNL1        0.0000
     17 C          -1.3366   10.4304    9.8637 C.3     1  UNL1        0.0000
     18 H          -0.5904   10.1959   10.6205 H       1  UNL1        0.0000
     19 H          -0.8572   11.0097    9.0775 H       1  UNL1        0.0000
     20 H          -1.6930    9.4982    9.4301 H       1  UNL1        0.0000
     21 C          -3.1170   13.9063   14.4767 C.ar    1  UNL1        0.0000
     22 H          -4.1381   13.5450   14.4698 H       1  UNL1        0.0000
     23 C          -2.4804   14.1731   15.6776 C.ar    1  UNL1        0.0000
     24 H          -3.0062   14.0168   16.6080 H       1  UNL1        0.0000
     25 C          -1.1778   14.6392   15.6810 C.ar    1  UNL1        0.0000
     26 H          -0.6787   14.8493   16.6156 H       1  UNL1        0.0000
     27 C          -0.5121   14.8445   14.4811 C.ar    1  UNL1        0.0000
     28 H           0.5020   15.2176   14.4820 H       1  UNL1        0.0000
     29 C          -1.1444   14.5767   13.2827 C.ar    1  UNL1        0.0000
     30 H          -0.6316   14.7494   12.3449 H       1  UNL1        0.0000
     31 C          -2.4534   14.0988   13.2756 C.ar    1  UNL1        0.0000
     32 C          -2.6151   15.3928    9.4681 C.ar    1  UNL1        0.0000
     33 H          -2.5422   14.4998    8.8641 H       1  UNL1        0.0000
     34 C          -2.4193   16.6313    8.8833 C.ar    1  UNL1        0.0000
     35 H          -2.1648   16.6931    7.8351 H       1  UNL1        0.0000
     36 C          -2.5621   17.7867    9.6318 C.ar    1  UNL1        0.0000
     37 H          -2.4151   18.7518    9.1695 H       1  UNL1        0.0000
     38 C          -2.9114   17.7043   10.9704 C.ar    1  UNL1        0.0000
     39 H          -3.0442   18.6042   11.5528 H       1  UNL1        0.0000
     40 C          -3.1014   16.4705   11.5604 C.ar    1  UNL1        0.0000
     41 H          -3.3937   16.4017   12.5998 H       1  UNL1        0.0000
     42 C          -2.9400   15.3052   10.8154 C.ar    1  UNL1        0.0000
     43 C          -6.9314   10.3278   10.6838 C.ar    1  UNL1        0.0000
     44 H          -7.0644   11.4061   10.6709 H       1  UNL1        0.0000
     45 C          -7.8179    9.5021   10.0157 C.ar    1  UNL1        0.0000
     46 H          -8.6504    9.9292    9.4767 H       1  UNL1        0.0000
     47 C          -7.6354    8.1299   10.0423 C.ar    1  UNL1        0.0000
     48 H          -8.3261    7.4822    9.5228 H       1  UNL1        0.0000
     49 C          -6.5701    7.5820   10.7419 C.ar    1  UNL1        0.0000
     50 H          -6.4369    6.5101   10.7705 H       1  UNL1        0.0000
     51 C          -5.6801    8.4028   11.4080 C.ar    1  UNL1        0.0000
     52 H          -4.8608    7.9732   11.9698 H       1  UNL1        0.0000
     53 C          -5.8542    9.7843   11.3739 C.ar    1  UNL1        0.0000
     54 C          -5.8303    9.5874   14.4314 C.ar    1  UNL1        0.0000
     55 H          -6.6640    9.3664   13.7803 H       1  UNL1        0.0000
     56 C          -5.8640    9.1938   15.7565 C.ar    1  UNL1        0.0000
     57 H          -6.7211    8.6547   16.1327 H       1  UNL1        0.0000
     58 C          -4.8111    9.4994   16.6024 C.ar    1  UNL1        0.0000
     59 H          -4.8424    9.1945   17.6380 H       1  UNL1        0.0000
     60 C          -3.7262   10.2142   16.1220 C.ar    1  UNL1        0.0000
     61 H          -2.9122   10.4753   16.7829 H       1  UNL1        0.0000
     62 C          -3.6869   10.6074   14.7981 C.ar    1  UNL1        0.0000
     63 H          -2.8515   11.1955   14.4417 H       1  UNL1        0.0000
     64 C          -4.7277   10.2756   13.9346 C.ar    1  UNL1        0.0000
     65 C          -7.0141   15.4422   12.8492 C.ar    1  UNL1        0.0000
     66 C          -7.5717   16.7147   12.9631 C.ar    1  UNL1        0.0000
     67 H          -7.4084   17.4273   12.1688 H       1  UNL1        0.0000
     68 C          -8.3255   17.0343   14.0710 C.ar    1  UNL1        0.0000
     69 H          -8.7635   18.0180   14.1557 H       1  UNL1        0.0000
     70 C          -8.5273   16.0974   15.0815 C.ar    1  UNL1        0.0000
     71 H          -9.1206   16.3571   15.9458 H       1  UNL1        0.0000
     72 C          -7.9722   14.8396   14.9849 C.ar    1  UNL1        0.0000
     73 H          -8.1167   14.1000   15.7584 H       1  UNL1        0.0000
     74 C          -7.2146   14.5063   13.8660 C.ar    1  UNL1        0.0000
@<TRIPOS>BOND
     1    35    34    1
     2    15    13    1
     3    33    32    1
     4    34    32   ar
     5    34    36   ar
     6    19    17    1
     7    37    36    1
     8    14    13    1
     9    13     2    1
    10    13    16    1
    11    20    17    1
    12    32    42   ar
    13    46    45    1
    14    48    47    1
    15    36    38   ar
    16     2     5    1
    17     2     1    1
    18    17    16    1
    19    17    18    1
    20    45    47   ar
    21    45    43   ar
    22    47    49   ar
    23     8     7    1
    24    16     7    1
    25    16    10    1
    26    44    43    1
    27    43    53   ar
    28    49    50    1
    29    49    51   ar
    30    42    40   ar
    31    42     5    1
    32    38    39    1
    33    38    40   ar
    34     7     5    1
    35     7     9    1
    36    12    10    1
    37    53    51   ar
    38    53     6    1
    39    51    52    1
    40     3     1    1
    41     3    65    1
    42    40    41    1
    43    10     6    1
    44    10    11    1
    45     5     1    1
    46     5    31    1
    47     1     6    1
    48     1     4    1
    49    67    66    1
    50     6    64    1
    51    30    29    1
    52    65    66   ar
    53    65    74   ar
    54    66    68   ar
    55    31    29   ar
    56    31    21   ar
    57    29    27   ar
    58     4    74    1
    59    55    54    1
    60    74    72   ar
    61    64    54   ar
    62    64    62   ar
    63    68    69    1
    64    68    70   ar
    65    54    56   ar
    66    63    62    1
    67    22    21    1
    68    21    23   ar
    69    27    28    1
    70    27    25   ar
    71    62    60   ar
    72    72    70   ar
    73    72    73    1
    74    70    71    1
    75    23    25   ar
    76    23    24    1
    77    25    26    1
    78    56    57    1
    79    56    58   ar
    80    60    58   ar
    81    60    61    1
    82    58    59    1
