@<TRIPOS>MOLECULE
CSD_code = TPCPCQ | q = 0 | S = 0 | Stoichiometry = C24H15CoO3 | MND = 6
 43 46 0 0 0
SMALL
GASTEIGER

@<TRIPOS>ATOM
      1 CO         -0.0251    0.9042    3.5245 Co.oh   1  UNL1        0.0000
      2 O          -0.4068    2.6025    1.1541 O.3     1  UNL1        0.0000
      3 O           0.1983   -1.8560    2.5271 O.3     1  UNL1        0.0000
      4 O          -2.5581    1.0997    5.0118 O.3     1  UNL1        0.0000
      5 C          -0.2607    1.9388    2.0734 C.3     1  UNL1        0.0000
      6 C           0.1033   -0.7795    2.8986 C.3     1  UNL1        0.0000
      7 C          -1.5795    1.0196    4.4268 C.3     1  UNL1        0.0000
      8 C           1.0758    2.1113    4.6755 C.3     1  UNL1        0.0000
      9 C           1.1984    0.7169    5.0530 C.3     1  UNL1        0.0000
     10 C           1.9130    1.2417    3.9093 C.3     1  UNL1        0.0000
     11 C           1.0314    3.4099    5.3017 C.ar    1  UNL1        0.0000
     12 C           1.3281    4.5701    4.5846 C.ar    1  UNL1        0.0000
     13 C           1.3063    5.7994    5.2130 C.ar    1  UNL1        0.0000
     14 C           0.9845    5.8896    6.5582 C.ar    1  UNL1        0.0000
     15 C           0.6801    4.7431    7.2751 C.ar    1  UNL1        0.0000
     16 C           0.6968    3.5097    6.6545 C.ar    1  UNL1        0.0000
     17 C           1.5006   -0.0475    6.2497 C.ar    1  UNL1        0.0000
     18 C           0.6367   -1.0186    6.7460 C.ar    1  UNL1        0.0000
     19 C           0.9601   -1.7167    7.8950 C.ar    1  UNL1        0.0000
     20 C           2.1457   -1.4538    8.5600 C.ar    1  UNL1        0.0000
     21 C           3.0099   -0.4874    8.0706 C.ar    1  UNL1        0.0000
     22 C           2.6958    0.2134    6.9225 C.ar    1  UNL1        0.0000
     23 C           3.2085    1.1481    3.2830 C.ar    1  UNL1        0.0000
     24 C           3.7099    2.1911    2.5021 C.ar    1  UNL1        0.0000
     25 C           4.9662    2.0935    1.9376 C.ar    1  UNL1        0.0000
     26 C           5.7350    0.9578    2.1379 C.ar    1  UNL1        0.0000
     27 C           5.2410   -0.0858    2.9050 C.ar    1  UNL1        0.0000
     28 C           3.9849    0.0016    3.4714 C.ar    1  UNL1        0.0000
     29 H           1.5634    4.4999    3.5326 H       1  UNL1        0.0000
     30 H           1.5380    6.6931    4.6523 H       1  UNL1        0.0000
     31 H           0.9661    6.8528    7.0457 H       1  UNL1        0.0000
     32 H           0.4250    4.8125    8.3224 H       1  UNL1        0.0000
     33 H           0.4587    2.6126    7.2080 H       1  UNL1        0.0000
     34 H          -0.2867   -1.2234    6.2221 H       1  UNL1        0.0000
     35 H           0.2835   -2.4695    8.2718 H       1  UNL1        0.0000
     36 H           2.3972   -2.0002    9.4566 H       1  UNL1        0.0000
     37 H           3.9362   -0.2781    8.5854 H       1  UNL1        0.0000
     38 H           3.3677    0.9686    6.5389 H       1  UNL1        0.0000
     39 H           3.1056    3.0712    2.3391 H       1  UNL1        0.0000
     40 H           5.3486    2.9050    1.3358 H       1  UNL1        0.0000
     41 H           6.7161    0.8843    1.6930 H       1  UNL1        0.0000
     42 H           5.8379   -0.9727    3.0589 H       1  UNL1        0.0000
     43 H           3.5934   -0.8103    4.0676 H       1  UNL1        0.0000
@<TRIPOS>BOND
     1     2     5    1
     2    40    25    1
     3    41    26    1
     4    25    26   ar
     5    25    24   ar
     6     5     1    1
     7    26    27   ar
     8    39    24    1
     9    24    23   ar
    10     3     6    1
    11     6     1    1
    12    27    42    1
    13    27    28   ar
    14    23    28   ar
    15    23    10    1
    16    28    43    1
    17     1     7    1
    18     1     9    1
    19    29    12    1
    20    10     8    1
    21    10     9    1
    22     7     4    1
    23    12    13   ar
    24    12    11   ar
    25    30    13    1
    26     8     9    1
    27     8    11    1
    28     9    17    1
    29    13    14   ar
    30    11    16   ar
    31    34    18    1
    32    17    18   ar
    33    17    22   ar
    34    38    22    1
    35    14    31    1
    36    14    15   ar
    37    16    33    1
    38    16    15   ar
    39    18    19   ar
    40    22    21   ar
    41    15    32    1
    42    19    35    1
    43    19    20   ar
    44    21    20   ar
    45    21    37    1
    46    20    36    1
