@<TRIPOS>MOLECULE
CSD_code = ULUQEY | q = 0 | S = 0 | Stoichiometry = C11H23CoO2P2 | MND = 6
 39 36 0 0 0
SMALL
GASTEIGER

@<TRIPOS>ATOM
      1 CO          7.7086   14.6903   -0.1645 Co.oh   1  UNL1        0.0000
      2 P           8.8895   14.1288   -1.9796 P.3     2  UNL2        0.0000
      3 P           5.5472   13.7524   -0.5933 P.3     3  UNL3        0.0000
      4 O           7.5237   11.0449    0.6796 O.2     1  UNL1        0.0000
      5 O           7.0382   17.3841   -0.9418 O.3     1  UNL1        0.0000
      6 C           7.6369   15.1243    1.8537 C.3     1  UNL1        0.0000
      7 C           8.7702   14.3860    1.5016 C.3     1  UNL1        0.0000
      8 C           8.6324   13.1211    0.8720 C.3     1  UNL1        0.0000
      9 C           7.5833   12.1782    1.1357 C.2     1  UNL1        0.0000
     10 C           7.3170   16.3095   -0.6351 C.3     1  UNL1        0.0000
     11 C          10.7067   14.3353   -1.8321 C.3     2  UNL2        0.0000
     12 H          11.0834   13.7086   -1.0269 H       2  UNL2        0.0000
     13 H          10.9244   15.3758   -1.5965 H       2  UNL2        0.0000
     14 H          11.1968   14.0611   -2.7662 H       2  UNL2        0.0000
     15 C           8.7713   12.3902   -2.5482 C.3     2  UNL2        0.0000
     16 H           7.8269   12.2603   -3.0733 H       2  UNL2        0.0000
     17 H           8.7792   11.7195   -1.6914 H       2  UNL2        0.0000
     18 H           9.5965   12.1502   -3.2181 H       2  UNL2        0.0000
     19 C           8.6154   15.0064   -3.5701 C.3     2  UNL2        0.0000
     20 H           9.2560   14.5960   -4.3503 H       2  UNL2        0.0000
     21 H           8.8323   16.0644   -3.4360 H       2  UNL2        0.0000
     22 H           7.5729   14.9030   -3.8649 H       2  UNL2        0.0000
     23 C           5.2222   12.0835   -1.2877 C.3     3  UNL3        0.0000
     24 H           4.1540   11.8707   -1.2743 H       3  UNL3        0.0000
     25 H           5.7538   11.3340   -0.7051 H       3  UNL3        0.0000
     26 H           5.5859   12.0499   -2.3128 H       3  UNL3        0.0000
     27 C           4.6400   14.7568   -1.8427 C.3     3  UNL3        0.0000
     28 H           5.2140   14.7887   -2.7666 H       3  UNL3        0.0000
     29 H           4.5315   15.7734   -1.4712 H       3  UNL3        0.0000
     30 H           3.6565   14.3317   -2.0401 H       3  UNL3        0.0000
     31 C           4.2898   13.7905    0.7476 C.3     3  UNL3        0.0000
     32 H           3.2981   13.6055    0.3359 H       3  UNL3        0.0000
     33 H           4.3069   14.7681    1.2267 H       3  UNL3        0.0000
     34 H           4.5193   13.0260    1.4869 H       3  UNL3        0.0000
     35 H           7.7815   16.0993    2.3044 H       1  UNL1        0.0000
     36 H           6.7435   14.6190    2.2019 H       1  UNL1        0.0000
     37 H           9.7604   14.8272    1.5891 H       1  UNL1        0.0000
     38 H           9.5434   12.6482    0.5056 H       1  UNL1        0.0000
     39 H           6.8031   12.5146    1.8508 H       1  UNL1        0.0000
@<TRIPOS>BOND
     1    20    19    1
     2    22    19    1
     3    19    21    1
     4    19     2    1
     5    18    15    1
     6    16    15    1
     7    28    27    1
     8    14    11    1
     9    15     2    1
    10    15    17    1
    11    26    23    1
    12    30    27    1
    13     2    11    1
    14    27    29    1
    15    27     3    1
    16    11    13    1
    17    11    12    1
    18    23    24    1
    19    23    25    1
    20    23     3    1
    21     5    10    1
    22    10     1    1
    23     3    31    1
    24     1     7    1
    25    32    31    1
    26    38     8    1
    27     4     9    2
    28    31    33    1
    29    31    34    1
    30     8     9    1
    31     8     7    1
    32     9    39    1
    33     7    37    1
    34     7     6    1
    35     6    36    1
    36     6    35    1
