@<TRIPOS>MOLECULE
CSD_code = ULUQAU | q = 0 | S = 0 | Stoichiometry = C15H36CoOP3 | MND = 6
 56 52 0 0 0
SMALL
GASTEIGER

@<TRIPOS>ATOM
      1 CO          4.1360    2.9419    2.9555 Co.oh   1  UNL1        0.0000
      2 P           3.9682    1.1133    4.1693 P.3     2  UNL2        0.0000
      3 P           3.6782    4.6104    4.6716 P.3     3  UNL3        0.0000
      4 P           6.3428    3.0825    2.8136 P.3     4  UNL4        0.0000
      5 O           2.2341    5.5406    2.1252 O.2     1  UNL1        0.0000
      6 C           2.2129    2.6092    2.2986 C.3     1  UNL1        0.0000
      7 C           3.1182    2.7863    1.2504 C.3     1  UNL1        0.0000
      8 C           3.8231    4.0268    1.1763 C.3     1  UNL1        0.0000
      9 C           3.2393    5.3177    1.4586 C.2     1  UNL1        0.0000
     10 C           3.3829    1.7256    0.2173 C.3     1  UNL1        0.0000
     11 H           2.7763    1.9412   -0.6651 H       1  UNL1        0.0000
     12 H           3.1111    0.7376    0.5804 H       1  UNL1        0.0000
     13 H           4.4278    1.7153   -0.0894 H       1  UNL1        0.0000
     14 C           3.9637    6.4813    0.7882 C.3     1  UNL1        0.0000
     15 H           3.4962    7.4217    1.0719 H       1  UNL1        0.0000
     16 H           3.9076    6.3726   -0.2937 H       1  UNL1        0.0000
     17 H           5.0114    6.4938    1.0771 H       1  UNL1        0.0000
     18 C           3.8226   -0.4675    3.2369 C.3     2  UNL2        0.0000
     19 H           3.7840   -1.3163    3.9189 H       2  UNL2        0.0000
     20 H           4.6746   -0.5748    2.5689 H       2  UNL2        0.0000
     21 H           2.9143   -0.4443    2.6402 H       2  UNL2        0.0000
     22 C           2.4778    0.9527    5.2354 C.3     2  UNL2        0.0000
     23 H           2.4339   -0.0377    5.6879 H       2  UNL2        0.0000
     24 H           1.5862    1.1227    4.6384 H       2  UNL2        0.0000
     25 H           2.5158    1.7077    6.0170 H       2  UNL2        0.0000
     26 C           5.2220    0.5615    5.4105 C.3     2  UNL2        0.0000
     27 H           4.8864   -0.3449    5.9132 H       2  UNL2        0.0000
     28 H           5.3697    1.3461    6.1491 H       2  UNL2        0.0000
     29 H           6.1692    0.3641    4.9132 H       2  UNL2        0.0000
     30 C           1.9356    4.9498    5.1409 C.3     3  UNL3        0.0000
     31 H           1.8914    5.6521    5.9726 H       3  UNL3        0.0000
     32 H           1.4458    4.0188    5.4181 H       3  UNL3        0.0000
     33 H           1.4335    5.3709    4.2747 H       3  UNL3        0.0000
     34 C           4.3456    4.2983    6.3711 C.3     3  UNL3        0.0000
     35 H           4.0487    5.0930    7.0542 H       3  UNL3        0.0000
     36 H           5.4303    4.2438    6.3346 H       3  UNL3        0.0000
     37 H           3.9667    3.3494    6.7426 H       3  UNL3        0.0000
     38 C           4.2691    6.3468    4.5045 C.3     3  UNL3        0.0000
     39 H           4.0672    6.9108    5.4144 H       3  UNL3        0.0000
     40 H           3.7505    6.8091    3.6707 H       3  UNL3        0.0000
     41 H           5.3391    6.3513    4.3040 H       3  UNL3        0.0000
     42 C           7.4037    3.2927    4.3083 C.3     4  UNL4        0.0000
     43 H           8.4574    3.2014    4.0471 H       4  UNL4        0.0000
     44 H           7.1508    2.5514    5.0599 H       4  UNL4        0.0000
     45 H           7.2197    4.2829    4.7207 H       4  UNL4        0.0000
     46 C           7.1291    4.4083    1.8056 C.3     4  UNL4        0.0000
     47 H           8.2148    4.3494    1.8772 H       4  UNL4        0.0000
     48 H           6.7951    5.3761    2.1740 H       4  UNL4        0.0000
     49 H           6.8321    4.3094    0.7648 H       4  UNL4        0.0000
     50 C           7.1850    1.6326    2.0496 C.3     4  UNL4        0.0000
     51 H           8.2595    1.7955    1.9736 H       4  UNL4        0.0000
     52 H           6.7715    1.4731    1.0558 H       4  UNL4        0.0000
     53 H           6.9907    0.7448    2.6471 H       4  UNL4        0.0000
     54 H           1.6514    1.6794    2.3262 H       1  UNL1        0.0000
     55 H           1.6707    3.4663    2.6716 H       1  UNL1        0.0000
     56 H           4.5902    4.0720    0.4045 H       1  UNL1        0.0000
@<TRIPOS>BOND
     1    11    10    1
     2    16    14    1
     3    13    10    1
     4    10    12    1
     5    10     7    1
     6    56     8    1
     7    49    46    1
     8    14    15    1
     9    14    17    1
    10    14     9    1
    11    52    50    1
    12     8     7    1
    13     8     9    1
    14     7     6    1
    15     7     1    1
    16     9     5    2
    17    46    47    1
    18    46    48    1
    19    46     4    1
    20    51    50    1
    21    50    53    1
    22    50     4    1
    23     6    54    1
    24     6    55    1
    25    20    18    1
    26    21    18    1
    27     4    42    1
    28    18    19    1
    29    18     2    1
    30    40    38    1
    31    43    42    1
    32     2    22    1
    33     2    26    1
    34    33    30    1
    35    41    38    1
    36    42    45    1
    37    42    44    1
    38    38     3    1
    39    38    39    1
    40    24    22    1
    41     3    30    1
    42     3    34    1
    43    29    26    1
    44    30    32    1
    45    30    31    1
    46    22    23    1
    47    22    25    1
    48    26    27    1
    49    26    28    1
    50    36    34    1
    51    34    37    1
    52    34    35    1
