@<TRIPOS>MOLECULE
CSD_code = UMACOB | q = 1 | S = 0 | Stoichiometry = C24H24CoN6O2(1+) | MND = 6
 57 64 0 0 0
SMALL
GASTEIGER

@<TRIPOS>ATOM
      1 CO          9.5045    8.4120    9.5045 Co.oh   1  UNL1        0.0000
      2 O           9.8217    8.5310   11.3647 O.3     1  UNL1        0.0000
      3 N           8.8318    6.7095    9.8777 N.pl3   1  UNL1        0.0000
      4 N          11.4224    6.8383   11.5395 N.3     1  UNL1        0.0000
      5 H          12.0229    6.6163   12.3152 H       1  UNL1        0.0000
      6 N          11.3304    7.6216    9.3359 N.pl3   1  UNL1        0.0000
      7 C           8.0949    5.9286    9.0937 C.3     1  UNL1        0.0000
      8 H           7.9001    6.3091    8.1014 H       1  UNL1        0.0000
      9 C           7.6255    4.6981    9.5184 C.2     1  UNL1        0.0000
     10 H           7.0305    4.0914    8.8552 H       1  UNL1        0.0000
     11 C           7.9309    4.2654   10.8003 C.2     1  UNL1        0.0000
     12 H           7.5731    3.3136   11.1611 H       1  UNL1        0.0000
     13 C           8.7113    5.0768   11.6097 C.2     1  UNL1        0.0000
     14 H           8.9803    4.7779   12.6103 H       1  UNL1        0.0000
     15 C           9.1441    6.2923   11.1096 C.2     1  UNL1        0.0000
     16 C          10.0469    7.2894   11.8234 C.3     1  UNL1        0.0000
     17 H           9.9221    7.2333   12.9184 H       1  UNL1        0.0000
     18 C          12.0230    7.0700   10.3488 C.3     1  UNL1        0.0000
     19 C          13.3837    6.6826   10.1982 C.2     1  UNL1        0.0000
     20 C          13.9806    6.8574    8.9741 C.2     1  UNL1        0.0000
     21 H          15.0119    6.5738    8.8291 H       1  UNL1        0.0000
     22 C          13.2413    7.3871    7.9176 C.2     1  UNL1        0.0000
     23 H          13.6771    7.5127    6.9411 H       1  UNL1        0.0000
     24 C          11.9394    7.7486    8.1450 C.2     1  UNL1        0.0000
     25 H          11.3273    8.1360    7.3460 H       1  UNL1        0.0000
     26 C          14.1340    6.0880   11.3506 C.3     1  UNL1        0.0000
     27 H          15.1487    5.8484   11.0458 H       1  UNL1        0.0000
     28 H          13.6575    5.1703   11.6950 H       1  UNL1        0.0000
     29 H          14.1906    6.7859   12.1866 H       1  UNL1        0.0000
     30 O           9.1873    8.2930    7.6443 O.3     1  UNL1        0.0000
     31 N          10.1772   10.1146    9.1313 N.pl3   1  UNL1        0.0000
     32 N           7.5866    9.9857    7.4695 N.3     1  UNL1        0.0000
     33 H           6.9861   10.2077    6.6938 H       1  UNL1        0.0000
     34 N           7.6786    9.2024    9.6731 N.pl3   1  UNL1        0.0000
     35 C          10.9141   10.8954    9.9153 C.3     1  UNL1        0.0000
     36 H          11.1089   10.5150   10.9076 H       1  UNL1        0.0000
     37 C          11.3835   12.1259    9.4906 C.2     1  UNL1        0.0000
     38 H          11.9785   12.7326   10.1538 H       1  UNL1        0.0000
     39 C          11.0781   12.5586    8.2087 C.2     1  UNL1        0.0000
     40 H          11.4359   13.5104    7.8480 H       1  UNL1        0.0000
     41 C          10.2977   11.7472    7.3993 C.2     1  UNL1        0.0000
     42 H          10.0287   12.0462    6.3987 H       1  UNL1        0.0000
     43 C           9.8649   10.5317    7.8994 C.2     1  UNL1        0.0000
     44 C           8.9621    9.5346    7.1856 C.3     1  UNL1        0.0000
     45 H           9.0869    9.5907    6.0906 H       1  UNL1        0.0000
     46 C           6.9860    9.7540    8.6602 C.3     1  UNL1        0.0000
     47 C           5.6253   10.1414    8.8108 C.2     1  UNL1        0.0000
     48 C           5.0284    9.9666   10.0349 C.2     1  UNL1        0.0000
     49 H           3.9971   10.2502   10.1799 H       1  UNL1        0.0000
     50 C           5.7677    9.4369   11.0914 C.2     1  UNL1        0.0000
     51 H           5.3319    9.3113   12.0679 H       1  UNL1        0.0000
     52 C           7.0696    9.0754   10.8640 C.2     1  UNL1        0.0000
     53 H           7.6818    8.6880   11.6630 H       1  UNL1        0.0000
     54 C           4.8750   10.7360    7.6583 C.3     1  UNL1        0.0000
     55 H           3.8602   10.9756    7.9632 H       1  UNL1        0.0000
     56 H           5.3514   11.6537    7.3140 H       1  UNL1        0.0000
     57 H           4.8185   10.0380    6.8224 H       1  UNL1        0.0000
@<TRIPOS>BOND
     1    45    44    1
     2    42    41    1
     3    33    32    1
     4    57    54    1
     5    23    22    1
     6    44    32    1
     7    44    30    1
     8    44    43    1
     9    56    54    1
    10    25    24    1
    11    41    43    2
    12    41    39    1
    13    32    46    1
    14    30     1    1
    15    54    55    1
    16    54    47    1
    17    40    39    1
    18    43    31    1
    19    22    24    2
    20    22    20    1
    21     8     7    1
    22    24     6    1
    23    39    37    2
    24    46    47    1
    25    46    34    1
    26    47    48    2
    27    21    20    1
    28    10     9    1
    29    20    19    2
    30     7     9    1
    31     7     3    1
    32    31     1    1
    33    31    35    1
    34     6     1    1
    35     6    18    1
    36    37    35    1
    37    37    38    1
    38     1    34    1
    39     1     3    1
    40     1     2    1
    41     9    11    2
    42    34    52    1
    43     3    15    1
    44    35    36    1
    45    48    49    1
    46    48    50    1
    47    19    18    1
    48    19    26    1
    49    18     4    1
    50    11    12    1
    51    11    13    1
    52    52    50    2
    53    52    53    1
    54    27    26    1
    55    50    51    1
    56    15    13    2
    57    15    16    1
    58    26    28    1
    59    26    29    1
    60     2    16    1
    61     4    16    1
    62     4     5    1
    63    13    14    1
    64    16    17    1
