@<TRIPOS>MOLECULE
CSD_code = UPELAD | q = 0 | S = 0 | Stoichiometry = C43H47CoN6 | MND = 4
 97 103 0 0 0
SMALL
GASTEIGER

@<TRIPOS>ATOM
      1 CO          1.2190    5.3135   12.9160 Co.oh   1  UNL1        0.0000
      2 N          -0.2353    5.2420   11.7248 N.pl3   1  UNL1        0.0000
      3 N           1.0583    3.5898   12.8896 N.pl3   1  UNL1        0.0000
      4 N           2.6277    4.9305   14.1133 N.pl3   1  UNL1        0.0000
      5 N           1.4342    7.0793   12.9318 N.2     1  UNL1        0.0000
      6 N           1.1771    8.1704   12.6046 N.2     1  UNL1        0.0000
      7 N           1.0059    9.2630   12.3460 N.2     1  UNL1        0.0000
      8 C          -2.0418    3.7374   10.9301 C.ar    1  UNL1        0.0000
      9 C          -0.7619    4.0427   11.5809 C.3     1  UNL1        0.0000
     10 C           0.0242    3.0193   12.2171 C.2     1  UNL1        0.0000
     11 C          -0.1055    1.6362   12.1523 C.2     1  UNL1        0.0000
     12 H          -0.9131    1.1944   11.5902 H       1  UNL1        0.0000
     13 C           0.8224    0.8419   12.8128 C.2     1  UNL1        0.0000
     14 H           0.7299   -0.2328   12.7829 H       1  UNL1        0.0000
     15 C           1.8703    1.4287   13.5101 C.2     1  UNL1        0.0000
     16 H           2.5901    0.8252   14.0404 H       1  UNL1        0.0000
     17 C           1.9788    2.8147   13.5221 C.2     1  UNL1        0.0000
     18 C           2.9307    3.6528   14.2021 C.2     1  UNL1        0.0000
     19 C           4.1324    3.0990   14.8391 C.ar    1  UNL1        0.0000
     20 C          -0.7956    6.3658   11.0758 C.ar    1  UNL1        0.0000
     21 C          -1.7867    7.1251   11.7039 C.ar    1  UNL1        0.0000
     22 C          -2.2558    8.2644   11.0656 C.ar    1  UNL1        0.0000
     23 H          -3.0253    8.8577   11.5339 H       1  UNL1        0.0000
     24 C          -1.7400    8.6584    9.8487 C.ar    1  UNL1        0.0000
     25 H          -2.1000    9.5584    9.3735 H       1  UNL1        0.0000
     26 C          -0.7555    7.9035    9.2384 C.ar    1  UNL1        0.0000
     27 H          -0.3574    8.2279    8.2905 H       1  UNL1        0.0000
     28 C          -0.2776    6.7431    9.8252 C.ar    1  UNL1        0.0000
     29 C          -2.3334    6.7332   13.0571 C.3     1  UNL1        0.0000
     30 H          -1.7394    5.8966   13.4454 H       1  UNL1        0.0000
     31 C          -2.2168    7.8883   14.0540 C.3     1  UNL1        0.0000
     32 H          -1.2020    8.2765   14.0687 H       1  UNL1        0.0000
     33 H          -2.4718    7.5447   15.0542 H       1  UNL1        0.0000
     34 H          -2.8885    8.7010   13.7913 H       1  UNL1        0.0000
     35 C          -3.7890    6.2762   12.9334 C.3     1  UNL1        0.0000
     36 H          -4.4146    7.0921   12.5790 H       1  UNL1        0.0000
     37 H          -4.1643    5.9510   13.9016 H       1  UNL1        0.0000
     38 H          -3.8775    5.4496   12.2316 H       1  UNL1        0.0000
     39 C           0.7859    5.9012    9.1479 C.3     1  UNL1        0.0000
     40 H           0.6384    4.8546    9.4418 H       1  UNL1        0.0000
     41 C           2.1770    6.3257    9.6262 C.3     1  UNL1        0.0000
     42 H           2.3229    7.3922    9.4712 H       1  UNL1        0.0000
     43 H           2.9458    5.7806    9.0822 H       1  UNL1        0.0000
     44 H           2.2889    6.1104   10.6924 H       1  UNL1        0.0000
     45 C           0.7151    5.9650    7.6208 C.3     1  UNL1        0.0000
     46 H          -0.3022    5.8098    7.2661 H       1  UNL1        0.0000
     47 H           1.3481    5.1895    7.1936 H       1  UNL1        0.0000
     48 H           1.0695    6.9240    7.2518 H       1  UNL1        0.0000
     49 C           3.3728    5.9071   14.8078 C.ar    1  UNL1        0.0000
     50 C           2.9230    6.3199   16.0733 C.ar    1  UNL1        0.0000
     51 C           3.6101    7.3349   16.7189 C.ar    1  UNL1        0.0000
     52 H           3.2751    7.6809   17.6836 H       1  UNL1        0.0000
     53 C           4.7283    7.9144   16.1473 C.ar    1  UNL1        0.0000
     54 H           5.2541    8.6999   16.6695 H       1  UNL1        0.0000
     55 C           5.1673    7.4907   14.9099 C.ar    1  UNL1        0.0000
     56 H           6.0415    7.9470   14.4717 H       1  UNL1        0.0000
     57 C           4.4954    6.4932   14.2173 C.ar    1  UNL1        0.0000
     58 C           1.7042    5.6732   16.7002 C.3     1  UNL1        0.0000
     59 H           1.6500    4.6327   16.3578 H       1  UNL1        0.0000
     60 C           1.7514    5.6538   18.2292 C.3     1  UNL1        0.0000
     61 H           2.7087    5.2817   18.5895 H       1  UNL1        0.0000
     62 H           0.9667    5.0030   18.6101 H       1  UNL1        0.0000
     63 H           1.5874    6.6468   18.6399 H       1  UNL1        0.0000
     64 C           0.4372    6.3858   16.2206 C.3     1  UNL1        0.0000
     65 H          -0.4426    5.9516   16.6913 H       1  UNL1        0.0000
     66 H           0.3408    6.2826   15.1363 H       1  UNL1        0.0000
     67 H           0.4815    7.4448   16.4638 H       1  UNL1        0.0000
     68 C           4.9685    6.0720   12.8458 C.3     1  UNL1        0.0000
     69 H           4.2523    5.3508   12.4353 H       1  UNL1        0.0000
     70 C           6.3389    5.3962   12.9311 C.3     1  UNL1        0.0000
     71 H           7.0876    6.0939   13.2986 H       1  UNL1        0.0000
     72 H           6.6480    5.0487   11.9474 H       1  UNL1        0.0000
     73 H           6.3073    4.5433   13.6061 H       1  UNL1        0.0000
     74 C           5.0127    7.2714   11.8969 C.3     1  UNL1        0.0000
     75 H           4.0525    7.7802   11.8920 H       1  UNL1        0.0000
     76 H           5.2351    6.9397   10.8850 H       1  UNL1        0.0000
     77 H           5.7769    7.9827   12.1988 H       1  UNL1        0.0000
     78 C          -2.4059    4.2251    9.6770 C.ar    1  UNL1        0.0000
     79 H          -1.7221    4.8373    9.1142 H       1  UNL1        0.0000
     80 C          -3.6409    3.9148    9.1374 C.ar    1  UNL1        0.0000
     81 H          -3.9063    4.2992    8.1638 H       1  UNL1        0.0000
     82 C          -4.5335    3.1193    9.8348 C.ar    1  UNL1        0.0000
     83 H          -5.4974    2.8820    9.4102 H       1  UNL1        0.0000
     84 C          -4.1840    2.6322   11.0839 C.ar    1  UNL1        0.0000
     85 H          -4.8775    2.0182   11.6397 H       1  UNL1        0.0000
     86 C          -2.9509    2.9359   11.6269 C.ar    1  UNL1        0.0000
     87 H          -2.6950    2.5784   12.6137 H       1  UNL1        0.0000
     88 C           4.9040    2.1958   14.1031 C.ar    1  UNL1        0.0000
     89 H           4.6046    1.9385   13.0975 H       1  UNL1        0.0000
     90 C           6.0624    1.6624   14.6339 C.ar    1  UNL1        0.0000
     91 H           6.6516    0.9718   14.0485 H       1  UNL1        0.0000
     92 C           6.4712    2.0171   15.9093 C.ar    1  UNL1        0.0000
     93 H           7.3767    1.6006   16.3241 H       1  UNL1        0.0000
     94 C           5.7135    2.9112   16.6461 C.ar    1  UNL1        0.0000
     95 H           6.0262    3.1928   17.6407 H       1  UNL1        0.0000
     96 C           4.5547    3.4512   16.1189 C.ar    1  UNL1        0.0000
     97 H           3.9730    4.1371   16.7108 H       1  UNL1        0.0000
@<TRIPOS>BOND
     1    47    45    1
     2    48    45    1
     3    46    45    1
     4    45    39    1
     5    81    80    1
     6    27    26    1
     7    43    41    1
     8    79    78    1
     9    80    78   ar
    10    80    82   ar
    11    39    40    1
    12    39    41    1
    13    39    28    1
    14    26    28   ar
    15    26    24   ar
    16    25    24    1
    17    83    82    1
    18    42    41    1
    19    41    44    1
    20    78     8   ar
    21    28    20   ar
    22    82    84   ar
    23    24    22   ar
    24    76    74    1
    25     8     9    1
    26     8    86   ar
    27    22    23    1
    28    22    21   ar
    29    20    21   ar
    30    20     2    1
    31    84    86   ar
    32    84    85    1
    33     9     2    1
    34     9    10    1
    35    12    11    1
    36    86    87    1
    37    21    29    1
    38     2     1    1
    39    75    74    1
    40    74    77    1
    41    74    68    1
    42    72    70    1
    43    11    10    2
    44    11    13    1
    45    10     3    1
    46    38    35    1
    47     7     6    2
    48    69    68    1
    49    36    35    1
    50     6     5    2
    51    14    13    1
    52    13    15    2
    53    68    70    1
    54    68    57    1
    55     3     1    1
    56     3    17    1
    57     1     5    1
    58     1     4    1
    59    70    71    1
    60    70    73    1
    61    35    29    1
    62    35    37    1
    63    29    30    1
    64    29    31    1
    65    89    88    1
    66    15    17    1
    67    15    16    1
    68    17    18    2
    69    34    31    1
    70    91    90    1
    71    31    32    1
    72    31    33    1
    73    88    90   ar
    74    88    19   ar
    75     4    18    1
    76     4    49    1
    77    18    19    1
    78    57    49   ar
    79    57    55   ar
    80    56    55    1
    81    90    92   ar
    82    49    50   ar
    83    19    96   ar
    84    55    53   ar
    85    66    64    1
    86    92    93    1
    87    92    94   ar
    88    50    58    1
    89    50    51   ar
    90    96    94   ar
    91    96    97    1
    92    53    54    1
    93    53    51   ar
    94    64    67    1
    95    64    65    1
    96    64    58    1
    97    59    58    1
    98    94    95    1
    99    58    60    1
   100    51    52    1
   101    60    61    1
   102    60    62    1
   103    60    63    1
