@<TRIPOS>MOLECULE
CSD_code = UQEGUT | q = 1 | S = 0 | Stoichiometry = C17H29CoN5O3S(1+) | MND = 6
 56 59 0 0 0
SMALL
GASTEIGER

@<TRIPOS>ATOM
      1 CO          1.0289    5.6340   12.0036 Co.oh   1  UNL1        0.0000
      2 S          -1.0182    5.2879    8.1657 S.2     1  UNL1        0.0000
      3 N           2.3411    5.0639   10.8097 N.3     1  UNL1        0.0000
      4 N           1.8879    7.5063   11.8856 N.4     1  UNL1        0.0000
      5 N           2.1592    5.1683   13.7227 N.4     1  UNL1        0.0000
      6 N          -0.3558    6.1730   13.3603 N.4     1  UNL1        0.0000
      7 N          -0.0873    6.0960   10.6257 N.2     1  UNL1        0.0000
      8 O           0.2911    3.9511   12.1366 O.3     1  UNL1        0.0000
      9 O           2.5096    9.6078   13.5018 O.3     1  UNL1        0.0000
     10 H           2.9429   10.3853   13.8661 H       1  UNL1        0.0000
     11 O           4.8343    5.2944   14.2735 O.3     1  UNL1        0.0000
     12 C           1.2285    3.0594   10.1174 C.ar    1  UNL1        0.0000
     13 C           0.2377    3.1233   11.1381 C.ar    1  UNL1        0.0000
     14 C          -0.8260    2.1978   11.1009 C.ar    1  UNL1        0.0000
     15 H          -1.5543    2.2438   11.8957 H       1  UNL1        0.0000
     16 C          -0.9421    1.2855   10.0848 C.ar    1  UNL1        0.0000
     17 H          -1.7757    0.6003   10.0715 H       1  UNL1        0.0000
     18 C          -0.0041    1.2610    9.0528 C.ar    1  UNL1        0.0000
     19 H          -0.1221    0.5723    8.2319 H       1  UNL1        0.0000
     20 C           1.0620    2.1232    9.0795 C.ar    1  UNL1        0.0000
     21 H           1.7552    2.1118    8.2540 H       1  UNL1        0.0000
     22 C           2.3530    3.9587   10.1266 C.3     1  UNL1        0.0000
     23 C           3.5703    3.5590    9.3403 C.3     1  UNL1        0.0000
     24 H           3.5651    4.0452    8.3646 H       1  UNL1        0.0000
     25 H           3.5882    2.4851    9.1878 H       1  UNL1        0.0000
     26 H           4.4822    3.8387    9.8631 H       1  UNL1        0.0000
     27 C           3.4190    6.0329   10.7077 C.3     1  UNL1        0.0000
     28 H           3.9823    5.9220    9.7793 H       1  UNL1        0.0000
     29 H           4.1065    5.9198   11.5562 H       1  UNL1        0.0000
     30 C           2.7847    7.4198   10.7274 C.3     1  UNL1        0.0000
     31 H           3.5645    8.1875   10.7469 H       1  UNL1        0.0000
     32 H           2.1805    7.5444    9.8255 H       1  UNL1        0.0000
     33 C           1.0640    8.7222   11.8547 C.3     1  UNL1        0.0000
     34 H           0.2495    8.6128   12.5700 H       1  UNL1        0.0000
     35 H           0.6365    8.8560   10.8619 H       1  UNL1        0.0000
     36 C           1.8845    9.9464   12.2745 C.3     1  UNL1        0.0000
     37 H           2.6384   10.1985   11.5182 H       1  UNL1        0.0000
     38 H           1.2165   10.8056   12.3947 H       1  UNL1        0.0000
     39 C           0.2697    6.3770   14.6693 C.3     1  UNL1        0.0000
     40 H          -0.4673    6.3929   15.4802 H       1  UNL1        0.0000
     41 H           0.8038    7.3318   14.6707 H       1  UNL1        0.0000
     42 C           1.2459    5.2250   14.8729 C.3     1  UNL1        0.0000
     43 H           0.6856    4.2869   14.8969 H       1  UNL1        0.0000
     44 H           1.7826    5.3404   15.8203 H       1  UNL1        0.0000
     45 C           2.9735    3.9455   13.7193 C.3     1  UNL1        0.0000
     46 H           3.3427    3.7746   12.7075 H       1  UNL1        0.0000
     47 H           2.3634    3.0897   14.0060 H       1  UNL1        0.0000
     48 C           4.1814    4.0926   14.6486 C.3     1  UNL1        0.0000
     49 H           3.8679    4.1426   15.6997 H       1  UNL1        0.0000
     50 H           4.8420    3.2281   14.5258 H       1  UNL1        0.0000
     51 C          -0.4563    5.6779    9.5776 C.1     1  UNL1        0.0000
     52 H           2.4778    7.6346   12.7134 H       1  UNL1        0.0000
     53 H           2.8453    5.9194   13.8377 H       1  UNL1        0.0000
     54 H          -0.9748    6.9446   13.1171 H       1  UNL1        0.0000
     55 H          -0.9474    5.3399   13.4025 H       1  UNL1        0.0000
     56 H           5.6633    5.3727   14.7553 H       1  UNL1        0.0000
@<TRIPOS>BOND
     1     2    51    2
     2    19    18    1
     3    21    20    1
     4    24    23    1
     5    18    20   ar
     6    18    16   ar
     7    20    12   ar
     8    25    23    1
     9    23    26    1
    10    23    22    1
    11    51     7    2
    12    28    27    1
    13    32    30    1
    14    17    16    1
    15    16    14   ar
    16    12    22    1
    17    12    13   ar
    18    22     3    1
    19     7     1    1
    20    27    30    1
    21    27     3    1
    22    27    29    1
    23    30    31    1
    24    30     4    1
    25     3     1    1
    26    35    33    1
    27    14    13   ar
    28    14    15    1
    29    13     8    1
    30    37    36    1
    31    33     4    1
    32    33    36    1
    33    33    34    1
    34     4     1    1
    35     4    52    1
    36     1     8    1
    37     1     6    1
    38     1     5    1
    39    36    38    1
    40    36     9    1
    41    46    45    1
    42    54     6    1
    43     6    55    1
    44     6    39    1
    45     9    10    1
    46    45     5    1
    47    45    47    1
    48    45    48    1
    49     5    53    1
    50     5    42    1
    51    11    48    1
    52    11    56    1
    53    50    48    1
    54    48    49    1
    55    39    41    1
    56    39    42    1
    57    39    40    1
    58    42    43    1
    59    42    44    1
