@<TRIPOS>MOLECULE
CSD_code = VAWXAU | q = 1 | S = 0 | Stoichiometry = C20H22CoN6S(1+) | MND = 6
 50 55 0 0 0
SMALL
GASTEIGER

@<TRIPOS>ATOM
      1 CO         10.9155   -1.6537    8.2461 Co.oh   1  UNL1        0.0000
      2 N          10.7795   -1.9417    6.3887 N.ar    1  UNL1        0.0000
      3 C          10.1135   -2.6947    5.5135 C.ar    1  UNL1        0.0000
      4 H           9.4796   -3.5098    5.8125 H       1  UNL1        0.0000
      5 C          10.3632   -2.2581    4.2098 C.ar    1  UNL1        0.0000
      6 H           9.9637   -2.6975    3.3177 H       1  UNL1        0.0000
      7 C          11.2030   -1.1627    4.2995 C.ar    1  UNL1        0.0000
      8 H          11.5908   -0.5664    3.4982 H       1  UNL1        0.0000
      9 C          11.4394   -0.9660    5.6678 C.ar    1  UNL1        0.0000
     10 C          12.0481    0.0165    6.4500 C.3     1  UNL1        0.0000
     11 H          12.5388    0.8795    6.0119 H       1  UNL1        0.0000
     12 N          11.9608   -0.1369    7.7384 N.3     1  UNL1        0.0000
     13 C          12.4266    0.8801    8.6394 C.3     1  UNL1        0.0000
     14 H          12.6836    1.7888    8.0844 H       1  UNL1        0.0000
     15 H          13.3271    0.5316    9.1635 H       1  UNL1        0.0000
     16 C          11.3410    1.2109    9.6684 C.3     1  UNL1        0.0000
     17 H          10.4058    1.4017    9.1358 H       1  UNL1        0.0000
     18 H          11.6175    2.1156   10.2090 H       1  UNL1        0.0000
     19 C          11.1289    0.0930   10.6414 C.3     1  UNL1        0.0000
     20 C          11.0156    0.4008   11.9967 C.2     1  UNL1        0.0000
     21 H          11.0495    1.4335   12.3052 H       1  UNL1        0.0000
     22 C          10.8593   -0.6029   12.9311 C.2     1  UNL1        0.0000
     23 H          10.7618   -0.3752   13.9806 H       1  UNL1        0.0000
     24 C          10.8483   -1.9132   12.4767 C.2     1  UNL1        0.0000
     25 H          10.7544   -2.7434   13.1574 H       1  UNL1        0.0000
     26 C          10.9554   -2.1413   11.1204 C.2     1  UNL1        0.0000
     27 H          10.9431   -3.1589   10.7594 H       1  UNL1        0.0000
     28 N          11.0745   -1.1730   10.2048 N.pl3   1  UNL1        0.0000
     29 N          12.6953   -2.7101    8.3387 N.4     1  UNL1        0.0000
     30 H          13.1096   -2.5428    7.4202 H       1  UNL1        0.0000
     31 H          13.3304   -2.2894    9.0163 H       1  UNL1        0.0000
     32 C          12.6636   -4.1614    8.5525 C.3     1  UNL1        0.0000
     33 H          12.4879   -4.3677    9.6114 H       1  UNL1        0.0000
     34 H          13.6240   -4.6140    8.2788 H       1  UNL1        0.0000
     35 C          11.5592   -4.7910    7.7074 C.3     1  UNL1        0.0000
     36 H          11.7140   -5.8688    7.6622 H       1  UNL1        0.0000
     37 H          11.6304   -4.4020    6.6888 H       1  UNL1        0.0000
     38 C          10.1846   -4.5223    8.2559 C.3     1  UNL1        0.0000
     39 C           9.3120   -5.5973    8.4021 C.2     1  UNL1        0.0000
     40 H           9.6316   -6.5817    8.0983 H       1  UNL1        0.0000
     41 C           8.0458   -5.4047    8.9225 C.2     1  UNL1        0.0000
     42 H           7.3587   -6.2296    9.0250 H       1  UNL1        0.0000
     43 C           7.6963   -4.1230    9.3151 C.2     1  UNL1        0.0000
     44 H           6.7306   -3.9086    9.7417 H       1  UNL1        0.0000
     45 C           8.6113   -3.1033    9.1415 C.2     1  UNL1        0.0000
     46 H           8.3527   -2.0947    9.4288 H       1  UNL1        0.0000
     47 N           9.8260   -3.2783    8.6083 N.pl3   1  UNL1        0.0000
     48 N           9.3996   -0.6109    8.1339 N.2     1  UNL1        0.0000
     49 C           8.7500    0.0100    7.3560 C.1     1  UNL1        0.0000
     50 S           7.7841    0.8967    6.4973 S.2     1  UNL1        0.0000
@<TRIPOS>BOND
     1     6     5    1
     2     8     7    1
     3     5     7   ar
     4     5     3   ar
     5     7     9   ar
     6     3     4    1
     7     3     2   ar
     8     9     2   ar
     9     9    10    1
    10    11    10    1
    11     2     1    1
    12    10    12    1
    13    50    49    2
    14    37    35    1
    15    49    48    2
    16    30    29    1
    17    36    35    1
    18    35    38    1
    19    35    32    1
    20    12     1    1
    21    12    13    1
    22    14    13    1
    23    40    39    1
    24    48     1    1
    25     1    29    1
    26     1    47    1
    27     1    28    1
    28    38    39    1
    29    38    47    1
    30    34    32    1
    31    29    32    1
    32    29    31    1
    33    39    41    2
    34    32    33    1
    35    47    45    1
    36    13    15    1
    37    13    16    1
    38    41    42    1
    39    41    43    1
    40    17    16    1
    41    45    43    2
    42    45    46    1
    43    43    44    1
    44    16    18    1
    45    16    19    1
    46    28    19    1
    47    28    26    1
    48    19    20    1
    49    27    26    1
    50    26    24    2
    51    20    21    1
    52    20    22    2
    53    24    22    1
    54    24    25    1
    55    22    23    1
