@<TRIPOS>MOLECULE
CSD_code = VEJSOV | q = 0 | S = 0 | Stoichiometry = C50H68CoN2P3Si | MND = 5
 125 134 0 0 0
SMALL
GASTEIGER

@<TRIPOS>ATOM
      1 CO         15.2786    3.3778    7.5179 Co.oh   1  UNL1        0.0000
      2 P          17.3701    3.6994    6.5339 P.3     1  UNL1        0.0000
      3 P          13.3949    3.3489    6.1810 P.3     1  UNL1        0.0000
      4 P          15.3225    2.7768    9.7512 P.3     1  UNL1        0.0000
      5 SI         15.1980    1.1451    7.1836 Si      1  UNL1        0.0000
      6 N          15.1481    4.9848    7.8572 N.3     1  UNL1        0.0000
      7 N          15.0605    6.0828    8.0777 N.3     1  UNL1        0.0000
      8 C          17.3754    3.8663    4.6913 C.3     1  UNL1        0.0000
      9 C          18.1564    5.3081    6.9207 C.ar    1  UNL1        0.0000
     10 C          19.2918    5.4225    7.7148 C.ar    1  UNL1        0.0000
     11 C          19.8070    6.6701    8.0200 C.ar    1  UNL1        0.0000
     12 C          19.1907    7.8158    7.5464 C.ar    1  UNL1        0.0000
     13 C          18.0574    7.7102    6.7568 C.ar    1  UNL1        0.0000
     14 C          17.5437    6.4657    6.4469 C.ar    1  UNL1        0.0000
     15 C          18.8050    2.5800    6.7353 C.ar    1  UNL1        0.0000
     16 C          18.7150    1.5188    7.6250 C.ar    1  UNL1        0.0000
     17 C          19.7780    0.6503    7.7975 C.ar    1  UNL1        0.0000
     18 C          20.9460    0.8365    7.0792 C.ar    1  UNL1        0.0000
     19 C          21.0474    1.8985    6.1940 C.ar    1  UNL1        0.0000
     20 C          19.9863    2.7672    6.0225 C.ar    1  UNL1        0.0000
     21 C          12.0684    4.6439    6.4154 C.3     1  UNL1        0.0000
     22 C          11.6754    4.7145    7.8884 C.3     1  UNL1        0.0000
     23 C          10.5943    5.7671    8.1153 C.3     1  UNL1        0.0000
     24 C          11.0621    7.1302    7.6169 C.3     1  UNL1        0.0000
     25 C          11.4221    7.0510    6.1373 C.3     1  UNL1        0.0000
     26 C          12.5226    6.0162    5.9153 C.3     1  UNL1        0.0000
     27 C          13.5350    3.3329    4.3084 C.3     1  UNL1        0.0000
     28 C          12.2190    3.3365    3.5318 C.3     1  UNL1        0.0000
     29 C          12.4973    3.3528    2.0284 C.3     1  UNL1        0.0000
     30 C          13.3352    2.1495    1.6115 C.3     1  UNL1        0.0000
     31 C          14.6424    2.1282    2.3958 C.3     1  UNL1        0.0000
     32 C          14.3536    2.1151    3.8929 C.3     1  UNL1        0.0000
     33 C          12.5275    1.7683    6.4448 C.ar    1  UNL1        0.0000
     34 C          11.1668    1.5605    6.2549 C.ar    1  UNL1        0.0000
     35 C          10.6275    0.3004    6.4496 C.ar    1  UNL1        0.0000
     36 C          11.4430   -0.7539    6.8245 C.ar    1  UNL1        0.0000
     37 C          12.7969   -0.5415    7.0204 C.ar    1  UNL1        0.0000
     38 C          13.3525    0.7142    6.8432 C.ar    1  UNL1        0.0000
     39 C          16.1873    0.0453    5.9228 C.3     1  UNL1        0.0000
     40 C          15.5808    0.2288    8.8338 C.ar    1  UNL1        0.0000
     41 C          15.8055   -1.1349    8.9310 C.ar    1  UNL1        0.0000
     42 C          16.2022   -1.7099   10.1253 C.ar    1  UNL1        0.0000
     43 C          16.4020   -0.9129   11.2401 C.ar    1  UNL1        0.0000
     44 C          16.1746    0.4498   11.1659 C.ar    1  UNL1        0.0000
     45 C          15.7502    1.0191    9.9704 C.ar    1  UNL1        0.0000
     46 C          16.4969    3.6287   10.9233 C.3     1  UNL1        0.0000
     47 C          17.9158    3.4562   10.3921 C.3     1  UNL1        0.0000
     48 C          18.9323    4.1482   11.2941 C.3     1  UNL1        0.0000
     49 C          18.5874    5.6236   11.4695 C.3     1  UNL1        0.0000
     50 C          17.1757    5.7717   12.0269 C.3     1  UNL1        0.0000
     51 C          16.1720    5.1119   11.0856 C.3     1  UNL1        0.0000
     52 C          13.7003    2.8595   10.6847 C.3     1  UNL1        0.0000
     53 C          13.7498    2.5682   12.1829 C.3     1  UNL1        0.0000
     54 C          12.3495    2.6834   12.7853 C.3     1  UNL1        0.0000
     55 C          11.3866    1.7136   12.1093 C.3     1  UNL1        0.0000
     56 C          11.3351    1.9940   10.6115 C.3     1  UNL1        0.0000
     57 C          12.7316    1.8912   10.0095 C.3     1  UNL1        0.0000
     58 H          17.4020    2.8736    4.2464 H       1  UNL1        0.0000
     59 H          16.4625    4.3685    4.3787 H       1  UNL1        0.0000
     60 H          18.2350    4.4430    4.3527 H       1  UNL1        0.0000
     61 H          19.7820    4.5353    8.0904 H       1  UNL1        0.0000
     62 H          20.6934    6.7463    8.6338 H       1  UNL1        0.0000
     63 H          19.5914    8.7881    7.7929 H       1  UNL1        0.0000
     64 H          17.5704    8.6005    6.3864 H       1  UNL1        0.0000
     65 H          16.6554    6.3876    5.8349 H       1  UNL1        0.0000
     66 H          17.8017    1.3740    8.1813 H       1  UNL1        0.0000
     67 H          19.6903   -0.1723    8.4927 H       1  UNL1        0.0000
     68 H          21.7782    0.1598    7.2082 H       1  UNL1        0.0000
     69 H          21.9605    2.0503    5.6361 H       1  UNL1        0.0000
     70 H          20.0853    3.6001    5.3414 H       1  UNL1        0.0000
     71 H          11.1859    4.3387    5.8408 H       1  UNL1        0.0000
     72 H          11.3109    3.7370    8.2119 H       1  UNL1        0.0000
     73 H          12.5554    4.9638    8.4858 H       1  UNL1        0.0000
     74 H           9.6858    5.4771    7.5799 H       1  UNL1        0.0000
     75 H          10.3498    5.8210    9.1788 H       1  UNL1        0.0000
     76 H          10.2792    7.8756    7.7736 H       1  UNL1        0.0000
     77 H          11.9428    7.4394    8.1837 H       1  UNL1        0.0000
     78 H          10.5348    6.7735    5.5610 H       1  UNL1        0.0000
     79 H          11.7590    8.0273    5.7819 H       1  UNL1        0.0000
     80 H          13.4148    6.3319    6.4578 H       1  UNL1        0.0000
     81 H          12.7722    5.9722    4.8526 H       1  UNL1        0.0000
     82 H          14.0998    4.2412    4.0545 H       1  UNL1        0.0000
     83 H          11.6497    2.4386    3.7817 H       1  UNL1        0.0000
     84 H          11.6135    4.2096    3.7774 H       1  UNL1        0.0000
     85 H          11.5501    3.3542    1.4841 H       1  UNL1        0.0000
     86 H          13.0307    4.2716    1.7698 H       1  UNL1        0.0000
     87 H          12.7777    1.2322    1.8143 H       1  UNL1        0.0000
     88 H          13.5380    2.1893    0.5390 H       1  UNL1        0.0000
     89 H          15.2275    1.2463    2.1262 H       1  UNL1        0.0000
     90 H          15.2331    3.0124    2.1417 H       1  UNL1        0.0000
     91 H          15.2836    2.0958    4.4571 H       1  UNL1        0.0000
     92 H          13.7978    1.2087    4.1447 H       1  UNL1        0.0000
     93 H          10.5113    2.3706    5.9693 H       1  UNL1        0.0000
     94 H           9.5673    0.1429    6.3081 H       1  UNL1        0.0000
     95 H          11.0189   -1.7371    6.9738 H       1  UNL1        0.0000
     96 H          13.4289   -1.3608    7.3286 H       1  UNL1        0.0000
     97 H          15.5150   -0.5661    5.3317 H       1  UNL1        0.0000
     98 H          16.7863    0.6367    5.2392 H       1  UNL1        0.0000
     99 H          16.8710   -0.6085    6.4506 H       1  UNL1        0.0000
    100 H          15.6797   -1.7585    8.0583 H       1  UNL1        0.0000
    101 H          16.3721   -2.7760   10.1866 H       1  UNL1        0.0000
    102 H          16.7363   -1.3527   12.1695 H       1  UNL1        0.0000
    103 H          16.3505    1.0560   12.0428 H       1  UNL1        0.0000
    104 H          16.4235    3.1422   11.9029 H       1  UNL1        0.0000
    105 H          18.1577    2.3927   10.3163 H       1  UNL1        0.0000
    106 H          17.9614    3.8839    9.3857 H       1  UNL1        0.0000
    107 H          18.9383    3.6597   12.2726 H       1  UNL1        0.0000
    108 H          19.9322    4.0454   10.8662 H       1  UNL1        0.0000
    109 H          19.3079    6.0978   12.1398 H       1  UNL1        0.0000
    110 H          18.6441    6.1259   10.5012 H       1  UNL1        0.0000
    111 H          17.1204    5.3036   13.0138 H       1  UNL1        0.0000
    112 H          16.9299    6.8292   12.1435 H       1  UNL1        0.0000
    113 H          16.2291    5.6091   10.1164 H       1  UNL1        0.0000
    114 H          15.1580    5.2406   11.4719 H       1  UNL1        0.0000
    115 H          13.3349    3.8850   10.5331 H       1  UNL1        0.0000
    116 H          14.1197    1.5538   12.3443 H       1  UNL1        0.0000
    117 H          14.4106    3.2673   12.6980 H       1  UNL1        0.0000
    118 H          12.3966    2.4771   13.8572 H       1  UNL1        0.0000
    119 H          11.9828    3.7052   12.6577 H       1  UNL1        0.0000
    120 H          11.7276    0.6889   12.2746 H       1  UNL1        0.0000
    121 H          10.3901    1.8109   12.5457 H       1  UNL1        0.0000
    122 H          10.6697    1.2841   10.1148 H       1  UNL1        0.0000
    123 H          10.9375    2.9988   10.4481 H       1  UNL1        0.0000
    124 H          12.6969    2.1023    8.9386 H       1  UNL1        0.0000
    125 H          13.1006    0.8685   10.1282 H       1  UNL1        0.0000
@<TRIPOS>BOND
     1    88    30    1
     2    85    29    1
     3    30    87    1
     4    30    29    1
     5    30    31    1
     6    86    29    1
     7    29    28    1
     8    89    31    1
     9    90    31    1
    10    31    32    1
    11    28    84    1
    12    28    83    1
    13    28    27    1
    14    32    92    1
    15    32    27    1
    16    32    91    1
    17    82    27    1
    18    58     8    1
    19    27     3    1
    20    60     8    1
    21    59     8    1
    22     8     2    1
    23    81    26    1
    24    98    39    1
    25    97    39    1
    26    70    20    1
    27    78    25    1
    28    69    19    1
    29    79    25    1
    30    65    14    1
    31    71    21    1
    32    26    25    1
    33    26    21    1
    34    26    80    1
    35    39    99    1
    36    39     5    1
    37    93    34    1
    38    20    19   ar
    39    20    15   ar
    40    25    24    1
    41     3    21    1
    42     3    33    1
    43     3     1    1
    44    19    18   ar
    45    34    33   ar
    46    34    35   ar
    47    94    35    1
    48    64    13    1
    49    21    22    1
    50    33    38   ar
    51    14    13   ar
    52    14     9   ar
    53    35    36   ar
    54     2    15    1
    55     2     9    1
    56     2     1    1
    57    15    16   ar
    58    13    12   ar
    59    36    95    1
    60    36    37   ar
    61    38    37   ar
    62    38     5    1
    63     9    10   ar
    64    37    96    1
    65    18    68    1
    66    18    17   ar
    67     5     1    1
    68     5    40    1
    69     1     6    1
    70     1     4    1
    71    12    63    1
    72    12    11   ar
    73    74    23    1
    74    24    76    1
    75    24    23    1
    76    24    77    1
    77    16    17   ar
    78    16    66    1
    79    10    11   ar
    80    10    61    1
    81    17    67    1
    82     6     7    1
    83    22    23    1
    84    22    72    1
    85    22    73    1
    86    11    62    1
    87   100    41    1
    88    23    75    1
    89    40    41   ar
    90    40    45   ar
    91    41    42   ar
    92   124    57    1
    93   106    47    1
    94     4    45    1
    95     4    52    1
    96     4    46    1
    97    45    44   ar
    98    57   125    1
    99    57    56    1
   100    57    52    1
   101   122    56    1
   102   113    51    1
   103    42   101    1
   104    42    43   ar
   105   105    47    1
   106    47    46    1
   107    47    48    1
   108   123    56    1
   109   110    49    1
   110   115    52    1
   111    56    55    1
   112    52    53    1
   113   108    48    1
   114    46    51    1
   115    46   104    1
   116    51   114    1
   117    51    50    1
   118    44    43   ar
   119    44   103    1
   120    43   102    1
   121    48    49    1
   122    48   107    1
   123    49    50    1
   124    49   109    1
   125    50   112    1
   126    50   111    1
   127    55   120    1
   128    55   121    1
   129    55    54    1
   130    53   116    1
   131    53   117    1
   132    53    54    1
   133   119    54    1
   134    54   118    1
