@<TRIPOS>MOLECULE
CSD_code = VEMYUK | q = 1 | S = 0 | Stoichiometry = C18H37CoNO2P2(1+) | MND = 5
 61 62 0 0 0
SMALL
GASTEIGER

@<TRIPOS>ATOM
      1 CO          8.6998    2.5322   13.8493 Co.oh   1  UNL1        0.0000
      2 N           6.6086    1.3850   13.7362 N.4     1  UNL1        0.0000
      3 H           6.7160    0.3929   13.9447 H       1  UNL1        0.0000
      4 P           8.1206    2.7730   15.9934 P.3     1  UNL1        0.0000
      5 O           7.2515    4.9913   13.3165 O.3     1  UNL1        0.0000
      6 P           8.8239    1.8042   11.7409 P.3     1  UNL1        0.0000
      7 O          11.3277    1.4696   14.3103 O.3     1  UNL1        0.0000
      8 C           6.4208    2.0255   16.0985 C.3     1  UNL1        0.0000
      9 H           6.5190    1.0123   16.4918 H       1  UNL1        0.0000
     10 H           5.8161    2.6028   16.8010 H       1  UNL1        0.0000
     11 C           5.7294    1.9819   14.7395 C.3     1  UNL1        0.0000
     12 H           4.7814    1.4317   14.8282 H       1  UNL1        0.0000
     13 H           5.4908    2.9985   14.4150 H       1  UNL1        0.0000
     14 C           6.1035    1.5223   12.3712 C.3     1  UNL1        0.0000
     15 H           5.8652    2.5770   12.2092 H       1  UNL1        0.0000
     16 H           5.1801    0.9444   12.2205 H       1  UNL1        0.0000
     17 C           7.1589    1.0694   11.3664 C.3     1  UNL1        0.0000
     18 H           6.8558    1.3376   10.3523 H       1  UNL1        0.0000
     19 H           7.2631   -0.0158   11.4177 H       1  UNL1        0.0000
     20 C           7.8352    4.5060   16.6102 C.3     1  UNL1        0.0000
     21 H           6.9677    4.8360   16.0197 H       1  UNL1        0.0000
     22 C           9.0200    5.4067   16.2648 C.3     1  UNL1        0.0000
     23 H           8.7276    6.4522   16.3321 H       1  UNL1        0.0000
     24 H           9.3750    5.2128   15.2506 H       1  UNL1        0.0000
     25 H           9.8506    5.2472   16.9461 H       1  UNL1        0.0000
     26 C           7.4691    4.6024   18.0880 C.3     1  UNL1        0.0000
     27 H           8.3168    4.3701   18.7263 H       1  UNL1        0.0000
     28 H           6.6465    3.9398   18.3499 H       1  UNL1        0.0000
     29 H           7.1582    5.6212   18.3099 H       1  UNL1        0.0000
     30 C           8.9937    1.8511   17.3555 C.3     1  UNL1        0.0000
     31 H           8.3352    1.9289   18.2308 H       1  UNL1        0.0000
     32 C          10.3508    2.4743   17.6705 C.3     1  UNL1        0.0000
     33 H          10.9003    1.8304   18.3542 H       1  UNL1        0.0000
     34 H          10.2509    3.4472   18.1424 H       1  UNL1        0.0000
     35 H          10.9447    2.5897   16.7658 H       1  UNL1        0.0000
     36 C           9.1720    0.3765   17.0011 C.3     1  UNL1        0.0000
     37 H           9.8862    0.2568   16.1906 H       1  UNL1        0.0000
     38 H           8.2388   -0.1002   16.7091 H       1  UNL1        0.0000
     39 H           9.5591   -0.1579   17.8662 H       1  UNL1        0.0000
     40 C           9.9671    0.3601   11.4413 C.3     1  UNL1        0.0000
     41 H          10.9671    0.7325   11.6936 H       1  UNL1        0.0000
     42 C           9.6246   -0.7869   12.3952 C.3     1  UNL1        0.0000
     43 H           8.8170   -1.3987   11.9990 H       1  UNL1        0.0000
     44 H           9.3290   -0.4155   13.3779 H       1  UNL1        0.0000
     45 H          10.4901   -1.4328   12.5242 H       1  UNL1        0.0000
     46 C           9.9752   -0.1340    9.9964 C.3     1  UNL1        0.0000
     47 H          10.5427   -1.0612    9.9437 H       1  UNL1        0.0000
     48 H          10.4498    0.5770    9.3259 H       1  UNL1        0.0000
     49 H           8.9679   -0.3385    9.6386 H       1  UNL1        0.0000
     50 C           9.1724    2.9358   10.3135 C.3     1  UNL1        0.0000
     51 H           9.0941    2.3222    9.4082 H       1  UNL1        0.0000
     52 C          10.5883    3.4857   10.4616 C.3     1  UNL1        0.0000
     53 H          10.7906    4.2160    9.6814 H       1  UNL1        0.0000
     54 H          11.3361    2.6991   10.3900 H       1  UNL1        0.0000
     55 H          10.6981    3.9797   11.4283 H       1  UNL1        0.0000
     56 C           8.1615    4.0732   10.2193 C.3     1  UNL1        0.0000
     57 H           8.3273    4.8015   11.0083 H       1  UNL1        0.0000
     58 H           7.1358    3.7129   10.2784 H       1  UNL1        0.0000
     59 H           8.2810    4.5868    9.2675 H       1  UNL1        0.0000
     60 C           7.7708    3.9857   13.4651 C.3     1  UNL1        0.0000
     61 C          10.2233    1.7438   14.1964 C.3     1  UNL1        0.0000
@<TRIPOS>BOND
     1    59    56    1
     2    48    46    1
     3    51    50    1
     4    49    46    1
     5    53    52    1
     6    47    46    1
     7    46    40    1
     8    56    58    1
     9    56    50    1
    10    56    57    1
    11    50    52    1
    12    50     6    1
    13    18    17    1
    14    54    52    1
    15    52    55    1
    16    17    19    1
    17    17     6    1
    18    17    14    1
    19    40    41    1
    20    40     6    1
    21    40    42    1
    22     6     1    1
    23    43    42    1
    24    15    14    1
    25    16    14    1
    26    14     2    1
    27    42    45    1
    28    42    44    1
    29     5    60    1
    30    60     1    1
    31     2     1    1
    32     2     3    1
    33     2    11    1
    34     1    61    1
    35     1     4    1
    36    61     7    1
    37    13    11    1
    38    11    12    1
    39    11     8    1
    40    24    22    1
    41     4     8    1
    42     4    20    1
    43     4    30    1
    44    21    20    1
    45     8     9    1
    46     8    10    1
    47    37    36    1
    48    22    23    1
    49    22    20    1
    50    22    25    1
    51    20    26    1
    52    38    36    1
    53    35    32    1
    54    36    30    1
    55    36    39    1
    56    30    32    1
    57    30    31    1
    58    32    34    1
    59    32    33    1
    60    26    29    1
    61    26    28    1
    62    26    27    1
