@<TRIPOS>MOLECULE
CSD_code = VEWWID | q = 1 | S = 0 | Stoichiometry = C30H23CoN4P(1+) | MND = 5
 59 63 0 0 0
SMALL
GASTEIGER

@<TRIPOS>ATOM
      1 CO          6.9016    3.9042    2.7435 Co.oh   1  UNL1        0.0000
      2 P           5.1943    4.5757    1.3043 P.3     1  UNL1        0.0000
      3 N           7.6107    2.5927    1.7444 N.3     1  UNL1        0.0000
      4 N           6.0991    2.5721    3.6118 N.3     1  UNL1        0.0000
      5 N           7.9725    5.1919    2.0918 N.3     1  UNL1        0.0000
      6 N           6.5856    5.0770    4.0576 N.3     1  UNL1        0.0000
      7 C           7.5645    1.4580    1.4708 C.3     1  UNL1        0.0000
      8 C           5.7925    1.4461    3.6097 C.3     1  UNL1        0.0000
      9 C           5.4410    0.1249    3.6385 C.2     1  UNL1        0.0000
     10 C           5.9185   -0.8736    2.8250 C.2     1  UNL1        0.0000
     11 C           6.8301   -0.8699    1.7441 C.2     1  UNL1        0.0000
     12 C           7.5409    0.1338    1.1316 C.2     1  UNL1        0.0000
     13 C           8.2009    6.3374    2.1097 C.3     1  UNL1        0.0000
     14 C           6.6403    6.1948    4.3893 C.3     1  UNL1        0.0000
     15 C           6.7029    7.4909    4.8182 C.2     1  UNL1        0.0000
     16 C           7.3773    8.5286    4.2227 C.2     1  UNL1        0.0000
     17 C           8.1515    8.6071    3.0439 C.2     1  UNL1        0.0000
     18 C           8.5041    7.6696    2.1035 C.2     1  UNL1        0.0000
     19 C           4.7393    6.2893    1.6744 C.ar    1  UNL1        0.0000
     20 C           5.1847    7.3363    0.8721 C.ar    1  UNL1        0.0000
     21 C           4.9207    8.6444    1.2367 C.ar    1  UNL1        0.0000
     22 C           4.2207    8.9169    2.4007 C.ar    1  UNL1        0.0000
     23 C           3.7919    7.8779    3.2123 C.ar    1  UNL1        0.0000
     24 C           4.0646    6.5688    2.8632 C.ar    1  UNL1        0.0000
     25 C           5.5474    4.5922   -0.4805 C.ar    1  UNL1        0.0000
     26 C           4.4951    4.8307   -1.3634 C.ar    1  UNL1        0.0000
     27 C           4.7355    4.8667   -2.7235 C.ar    1  UNL1        0.0000
     28 C           6.0181    4.6626   -3.2103 C.ar    1  UNL1        0.0000
     29 C           7.0635    4.4237   -2.3341 C.ar    1  UNL1        0.0000
     30 C           6.8317    4.3873   -0.9694 C.ar    1  UNL1        0.0000
     31 C           3.6688    3.5882    1.3549 C.ar    1  UNL1        0.0000
     32 C           3.8298    2.2203    1.1364 C.ar    1  UNL1        0.0000
     33 C           2.7315    1.3830    1.1345 C.ar    1  UNL1        0.0000
     34 C           1.4649    1.9052    1.3491 C.ar    1  UNL1        0.0000
     35 C           1.3008    3.2655    1.5515 C.ar    1  UNL1        0.0000
     36 C           2.3968    4.1116    1.5557 C.ar    1  UNL1        0.0000
     37 H           4.7145   -0.1395    4.3966 H       1  UNL1        0.0000
     38 H           5.5118   -1.8537    3.0401 H       1  UNL1        0.0000
     39 H           6.9821   -1.8488    1.3072 H       1  UNL1        0.0000
     40 H           8.1672   -0.1312    0.2883 H       1  UNL1        0.0000
     41 H           6.1514    7.6986    5.7268 H       1  UNL1        0.0000
     42 H           7.2895    9.4731    4.7443 H       1  UNL1        0.0000
     43 H           8.5251    9.6024    2.8393 H       1  UNL1        0.0000
     44 H           9.0975    7.9974    1.2586 H       1  UNL1        0.0000
     45 H           5.7256    7.1242   -0.0394 H       1  UNL1        0.0000
     46 H           5.2598    9.4538    0.6083 H       1  UNL1        0.0000
     47 H           4.0106    9.9386    2.6772 H       1  UNL1        0.0000
     48 H           3.2497    8.0902    4.1215 H       1  UNL1        0.0000
     49 H           3.7566    5.7547    3.5062 H       1  UNL1        0.0000
     50 H           3.4966    4.9894   -0.9805 H       1  UNL1        0.0000
     51 H           3.9209    5.0536   -3.4065 H       1  UNL1        0.0000
     52 H           6.2006    4.6892   -4.2735 H       1  UNL1        0.0000
     53 H           8.0618    4.2649   -2.7129 H       1  UNL1        0.0000
     54 H           7.6461    4.2005   -0.2840 H       1  UNL1        0.0000
     55 H           4.8226    1.8266    0.9579 H       1  UNL1        0.0000
     56 H           2.8601    0.3247    0.9636 H       1  UNL1        0.0000
     57 H           0.6057    1.2526    1.3519 H       1  UNL1        0.0000
     58 H           0.3130    3.6731    1.7042 H       1  UNL1        0.0000
     59 H           2.2578    5.1727    1.7029 H       1  UNL1        0.0000
@<TRIPOS>BOND
     1    52    28    1
     2    51    27    1
     3    28    27   ar
     4    28    29   ar
     5    27    26   ar
     6    53    29    1
     7    29    30   ar
     8    26    50    1
     9    26    25   ar
    10    30    25   ar
    11    30    54    1
    12    25     2    1
    13    45    20    1
    14    40    12    1
    15    46    21    1
    16    20    21   ar
    17    20    19   ar
    18    55    32    1
    19    56    33    1
    20    12     7    1
    21    12    11    2
    22    33    32   ar
    23    33    34   ar
    24    32    31   ar
    25    21    22   ar
    26    44    18    1
    27     2    31    1
    28     2    19    1
    29     2     1    1
    30    39    11    1
    31    34    57    1
    32    34    35   ar
    33    31    36   ar
    34     7     3    1
    35    35    36   ar
    36    35    58    1
    37    36    59    1
    38    19    24   ar
    39    11    10    1
    40     3     1    1
    41     5    13    1
    42     5     1    1
    43    18    13    1
    44    18    17    2
    45    22    47    1
    46    22    23   ar
    47     1     4    1
    48     1     6    1
    49    10    38    1
    50    10     9    2
    51    43    17    1
    52    24    23   ar
    53    24    49    1
    54    17    16    1
    55    23    48    1
    56     8     4    1
    57     8     9    1
    58     9    37    1
    59     6    14    1
    60    16    42    1
    61    16    15    2
    62    14    15    1
    63    15    41    1
