@<TRIPOS>MOLECULE
CSD_code = VIRQIW | q = 1 | S = 0 | Stoichiometry = C49H45ClCoN4P2(1+) | MND = 5
 102 110 0 0 0
SMALL
GASTEIGER

@<TRIPOS>ATOM
      1 CO         11.3002    6.4019   12.7252 Co.oh   1  UNL1        0.0000
      2 CL         11.0783    8.5500   12.1727 Cl      1  UNL1        0.0000
      3 P          13.5303    6.2819   10.5829 P.3     1  UNL1        0.0000
      4 P           8.3880    6.0933   11.7736 P.3     1  UNL1        0.0000
      5 N          10.8876    6.1317   10.8555 N.pl3   1  UNL1        0.0000
      6 N          13.2328    6.2698   12.1619 N.pl3   1  UNL1        0.0000
      7 N           9.3531    6.1014   13.0588 N.pl3   1  UNL1        0.0000
      8 N          11.7232    6.1510   14.2553 N.pl3   1  UNL1        0.0000
      9 C          11.8457    6.2175    9.9202 C.3     1  UNL1        0.0000
     10 C          11.5712    6.3138    8.5647 C.2     1  UNL1        0.0000
     11 H          12.3919    6.3968    7.8669 H       1  UNL1        0.0000
     12 C          10.2507    6.3152    8.1391 C.2     1  UNL1        0.0000
     13 H          10.0050    6.3888    7.0915 H       1  UNL1        0.0000
     14 C           9.2555    6.2364    9.1026 C.2     1  UNL1        0.0000
     15 H           8.2080    6.2584    8.8385 H       1  UNL1        0.0000
     16 C           9.6118    6.1411   10.4389 C.2     1  UNL1        0.0000
     17 C          14.3166    7.7246    9.7925 C.ar    1  UNL1        0.0000
     18 C          15.4067    7.5822    8.9392 C.ar    1  UNL1        0.0000
     19 H          15.8243    6.6050    8.7447 H       1  UNL1        0.0000
     20 C          15.9545    8.7023    8.3387 C.ar    1  UNL1        0.0000
     21 H          16.8042    8.5937    7.6822 H       1  UNL1        0.0000
     22 C          15.4164    9.9564    8.5789 C.ar    1  UNL1        0.0000
     23 H          15.8508   10.8259    8.1100 H       1  UNL1        0.0000
     24 C          14.3209   10.0955    9.4175 C.ar    1  UNL1        0.0000
     25 H          13.8977   11.0708    9.6015 H       1  UNL1        0.0000
     26 C          13.7670    8.9839   10.0244 C.ar    1  UNL1        0.0000
     27 H          12.9146    9.0864   10.6815 H       1  UNL1        0.0000
     28 C          14.4677    4.8180   10.0714 C.ar    1  UNL1        0.0000
     29 C          13.8998    3.7661    9.3632 C.ar    1  UNL1        0.0000
     30 H          12.8803    3.8373    9.0086 H       1  UNL1        0.0000
     31 C          14.6497    2.6312    9.1090 C.ar    1  UNL1        0.0000
     32 H          14.2157    1.8154    8.5511 H       1  UNL1        0.0000
     33 C          15.9518    2.5383    9.5746 C.ar    1  UNL1        0.0000
     34 H          16.5295    1.6484    9.3782 H       1  UNL1        0.0000
     35 C          16.5140    3.5824   10.2934 C.ar    1  UNL1        0.0000
     36 H          17.5260    3.5067   10.6598 H       1  UNL1        0.0000
     37 C          15.7754    4.7240   10.5435 C.ar    1  UNL1        0.0000
     38 H          16.2032    5.5451   11.1035 H       1  UNL1        0.0000
     39 C           7.2274    7.4574   11.4256 C.ar    1  UNL1        0.0000
     40 C           7.7349    8.7528   11.3412 C.ar    1  UNL1        0.0000
     41 H           8.7878    8.9314   11.5106 H       1  UNL1        0.0000
     42 C           6.8853    9.8039   11.0514 C.ar    1  UNL1        0.0000
     43 H           7.2786   10.8069   10.9913 H       1  UNL1        0.0000
     44 C           5.5345    9.5698   10.8427 C.ar    1  UNL1        0.0000
     45 H           4.8719   10.3925   10.6224 H       1  UNL1        0.0000
     46 C           5.0328    8.2800   10.9137 C.ar    1  UNL1        0.0000
     47 H           3.9825    8.0967   10.7460 H       1  UNL1        0.0000
     48 C           5.8747    7.2197   11.2002 C.ar    1  UNL1        0.0000
     49 H           5.4812    6.2146   11.2466 H       1  UNL1        0.0000
     50 C           7.4386    4.5515   11.7042 C.ar    1  UNL1        0.0000
     51 C           7.7103    3.5407   10.7902 C.ar    1  UNL1        0.0000
     52 H           8.4522    3.6920   10.0178 H       1  UNL1        0.0000
     53 C           7.0209    2.3434   10.8710 C.ar    1  UNL1        0.0000
     54 H           7.2224    1.5591   10.1573 H       1  UNL1        0.0000
     55 C           6.0793    2.1480   11.8691 C.ar    1  UNL1        0.0000
     56 H           5.5492    1.2103   11.9306 H       1  UNL1        0.0000
     57 C           5.8183    3.1511   12.7903 C.ar    1  UNL1        0.0000
     58 H           5.0891    2.9956   13.5700 H       1  UNL1        0.0000
     59 C           6.4952    4.3541   12.7112 C.ar    1  UNL1        0.0000
     60 H           6.3017    5.1424   13.4266 H       1  UNL1        0.0000
     61 C          14.2978    5.9479   13.0570 C.ar    1  UNL1        0.0000
     62 C          14.4921    4.6181   13.4503 C.ar    1  UNL1        0.0000
     63 C          15.5123    4.3257   14.3426 C.ar    1  UNL1        0.0000
     64 H          15.6591    3.2982   14.6418 H       1  UNL1        0.0000
     65 C          16.3298    5.3143   14.8684 C.ar    1  UNL1        0.0000
     66 C          16.1026    6.6291   14.4835 C.ar    1  UNL1        0.0000
     67 H          16.7156    7.4154   14.8988 H       1  UNL1        0.0000
     68 C          15.0986    6.9648   13.5910 C.ar    1  UNL1        0.0000
     69 C          13.6165    3.4989   12.9682 C.3     1  UNL1        0.0000
     70 H          12.8505    3.8508   12.2776 H       1  UNL1        0.0000
     71 H          13.1236    3.0322   13.8201 H       1  UNL1        0.0000
     72 H          14.2131    2.7379   12.4663 H       1  UNL1        0.0000
     73 C          17.3978    4.9838   15.8607 C.3     1  UNL1        0.0000
     74 H          17.7275    3.9539   15.7523 H       1  UNL1        0.0000
     75 H          17.0061    5.1093   16.8701 H       1  UNL1        0.0000
     76 H          18.2518    5.6472   15.7490 H       1  UNL1        0.0000
     77 C          14.8707    8.3959   13.2174 C.3     1  UNL1        0.0000
     78 H          15.3159    9.0549   13.9575 H       1  UNL1        0.0000
     79 H          13.8062    8.6117   13.1525 H       1  UNL1        0.0000
     80 H          15.3227    8.6178   12.2491 H       1  UNL1        0.0000
     81 C           8.8215    5.7464   14.3347 C.ar    1  UNL1        0.0000
     82 C           8.2185    6.7150   15.1456 C.ar    1  UNL1        0.0000
     83 C           7.7238    6.3396   16.3846 C.ar    1  UNL1        0.0000
     84 H           7.2572    7.0888   17.0072 H       1  UNL1        0.0000
     85 C           7.8246    5.0352   16.8475 C.ar    1  UNL1        0.0000
     86 C           8.4522    4.0980   16.0392 C.ar    1  UNL1        0.0000
     87 H           8.5572    3.0813   16.3889 H       1  UNL1        0.0000
     88 C           8.9597    4.4295   14.7930 C.ar    1  UNL1        0.0000
     89 C           8.1057    8.1370   14.6929 C.3     1  UNL1        0.0000
     90 H           8.0028    8.7983   15.5491 H       1  UNL1        0.0000
     91 H           7.2280    8.2699   14.0576 H       1  UNL1        0.0000
     92 H           8.9851    8.4346   14.1259 H       1  UNL1        0.0000
     93 C           7.2684    4.6486   18.1810 C.3     1  UNL1        0.0000
     94 H           7.2740    5.4946   18.8630 H       1  UNL1        0.0000
     95 H           7.8420    3.8359   18.6189 H       1  UNL1        0.0000
     96 H           6.2372    4.3117   18.0708 H       1  UNL1        0.0000
     97 C           9.6447    3.3707   13.9797 C.3     1  UNL1        0.0000
     98 H          10.2994    3.8091   13.2256 H       1  UNL1        0.0000
     99 H           8.9110    2.7408   13.4752 H       1  UNL1        0.0000
    100 H          10.2408    2.7349   14.6305 H       1  UNL1        0.0000
    101 C          12.2088    6.1208   15.3739 C.1     1  UNL1        0.0000
    102 C          12.7594    6.0353   16.5335 C.1     1  UNL1        0.0000
@<TRIPOS>BOND
     1    13    12    1
     2    21    20    1
     3    11    10    1
     4    23    22    1
     5    12    10    2
     6    12    14    1
     7    20    22   ar
     8    20    18   ar
     9    32    31    1
    10    10     9    1
    11    22    24   ar
    12    19    18    1
    13    15    14    1
    14    18    17   ar
    15    30    29    1
    16    14    16    2
    17    31    29   ar
    18    31    33   ar
    19    29    28   ar
    20    34    33    1
    21    24    25    1
    22    24    26   ar
    23    33    35   ar
    24    17    26   ar
    25    17     3    1
    26     9     3    1
    27     9     5    1
    28    52    51    1
    29    26    27    1
    30    28    37   ar
    31    28     3    1
    32    54    53    1
    33    35    37   ar
    34    35    36    1
    35    16     5    1
    36    16     4    1
    37    37    38    1
    38     3     6    1
    39    45    44    1
    40    47    46    1
    41    51    53   ar
    42    51    50   ar
    43    44    46   ar
    44    44    42   ar
    45     5     1    1
    46    53    55   ar
    47    46    48   ar
    48    43    42    1
    49    42    40   ar
    50    48    49    1
    51    48    39   ar
    52    40    39   ar
    53    40    41    1
    54    39     4    1
    55    50     4    1
    56    50    59   ar
    57     4     7    1
    58    55    56    1
    59    55    57   ar
    60     6     1    1
    61     6    61    1
    62     2     1    1
    63    80    77    1
    64    70    69    1
    65    72    69    1
    66    59    57   ar
    67    59    60    1
    68     1     7    1
    69     1     8    1
    70    57    58    1
    71    69    62    1
    72    69    71    1
    73    61    62   ar
    74    61    68   ar
    75     7    81    1
    76    79    77    1
    77    77    68    1
    78    77    78    1
    79    98    97    1
    80    62    63   ar
    81    99    97    1
    82    68    66   ar
    83    97   100    1
    84    97    88    1
    85    91    89    1
    86    92    89    1
    87     8   101    1
    88    81    88   ar
    89    81    82   ar
    90    63    64    1
    91    63    65   ar
    92    66    65   ar
    93    66    67    1
    94    89    82    1
    95    89    90    1
    96    88    86   ar
    97    65    73    1
    98    82    83   ar
    99   101   102    3
   100    76    73    1
   101    74    73    1
   102    73    75    1
   103    86    87    1
   104    86    85   ar
   105    83    85   ar
   106    83    84    1
   107    85    93    1
   108    96    93    1
   109    93    95    1
   110    93    94    1
