@<TRIPOS>MOLECULE
CSD_code = VISROG | q = 1 | S = 0 | Stoichiometry = C16H18CoN8S2(1+) | MND = 6
 45 50 0 0 0
SMALL
GASTEIGER

@<TRIPOS>ATOM
      1 CO          8.1137    0.9088   11.1767 Co.oh   1  UNL1        0.0000
      2 S           7.8934    0.3901   13.3868 S.3     1  UNL1        0.0000
      3 S           8.4207   -1.2935   10.6681 S.3     1  UNL1        0.0000
      4 N           8.6059    1.3607    9.3789 N.pl3   1  UNL1        0.0000
      5 N           9.8992    1.1638   11.5472 N.pl3   1  UNL1        0.0000
      6 N          10.4128    1.0109   12.7546 N.2     1  UNL1        0.0000
      7 N          10.0183    0.4747   14.9406 N.pl3   1  UNL1        0.0000
      8 N           7.5503    2.6986   11.5724 N.pl3   1  UNL1        0.0000
      9 N           6.3298    0.6054   10.8376 N.pl3   1  UNL1        0.0000
     10 N           5.8585   -0.5696   10.4606 N.2     1  UNL1        0.0000
     11 N           6.3389   -2.7494    9.9721 N.pl3   1  UNL1        0.0000
     12 C           7.8611    1.4313    8.2806 C.3     1  UNL1        0.0000
     13 C           8.3886    1.7337    7.0390 C.2     1  UNL1        0.0000
     14 C           9.7532    1.9754    6.9306 C.2     1  UNL1        0.0000
     15 C          10.5331    1.9072    8.0661 C.2     1  UNL1        0.0000
     16 C           9.9352    1.5944    9.2909 C.2     1  UNL1        0.0000
     17 C          10.6545    1.4774   10.5328 C.3     1  UNL1        0.0000
     18 C           9.5740    0.6441   13.6945 C.2     1  UNL1        0.0000
     19 C          12.1276    1.6787   10.6433 C.3     1  UNL1        0.0000
     20 C           8.2599    3.7508   11.9666 C.3     1  UNL1        0.0000
     21 C           7.6842    4.9743   12.2546 C.2     1  UNL1        0.0000
     22 C           6.3069    5.1139   12.1283 C.2     1  UNL1        0.0000
     23 C           5.5631    4.0275   11.7172 C.2     1  UNL1        0.0000
     24 C           6.2093    2.8184   11.4422 C.2     1  UNL1        0.0000
     25 C           5.5319    1.6186   11.0238 C.3     1  UNL1        0.0000
     26 C           6.7397   -1.5357   10.3534 C.2     1  UNL1        0.0000
     27 C           4.0547    1.5393   10.8385 C.3     1  UNL1        0.0000
     28 H           6.8038    1.2315    8.3884 H       1  UNL1        0.0000
     29 H           7.7432    1.7731    6.1774 H       1  UNL1        0.0000
     30 H          10.1947    2.2088    5.9746 H       1  UNL1        0.0000
     31 H          11.5947    2.0840    8.0227 H       1  UNL1        0.0000
     32 H          12.4084    2.6719   10.2973 H       1  UNL1        0.0000
     33 H          12.6561    0.9432   10.0391 H       1  UNL1        0.0000
     34 H          12.4252    1.5612   11.6812 H       1  UNL1        0.0000
     35 H           9.3282    3.6156   12.0658 H       1  UNL1        0.0000
     36 H           8.3028    5.7957   12.5757 H       1  UNL1        0.0000
     37 H           5.8282    6.0544   12.3511 H       1  UNL1        0.0000
     38 H           4.4932    4.0944   11.6119 H       1  UNL1        0.0000
     39 H           3.7154    2.2828   10.1193 H       1  UNL1        0.0000
     40 H           3.5449    1.7191   11.7836 H       1  UNL1        0.0000
     41 H           3.7943    0.5470   10.4817 H       1  UNL1        0.0000
     42 H           9.3955    0.1300   15.6506 H       1  UNL1        0.0000
     43 H          11.0025    0.5510   15.1348 H       1  UNL1        0.0000
     44 H           5.3579   -2.9346    9.8472 H       1  UNL1        0.0000
     45 H           6.9964   -3.5098    9.9533 H       1  UNL1        0.0000
@<TRIPOS>BOND
     1    30    14    1
     2    29    13    1
     3    14    13    2
     4    14    15    1
     5    13    12    1
     6    31    15    1
     7    15    16    2
     8    12    28    1
     9    12     4    1
    10    16     4    1
    11    16    17    1
    12     4     1    1
    13    44    11    1
    14    45    11    1
    15    11    26    1
    16    33    19    1
    17    39    27    1
    18    32    19    1
    19    26    10    2
    20    26     3    1
    21    10     9    1
    22    41    27    1
    23    17    19    1
    24    17     5    1
    25    19    34    1
    26     3     1    1
    27     9    25    1
    28     9     1    1
    29    27    25    1
    30    27    40    1
    31    25    24    1
    32     1     5    1
    33     1     8    1
    34     1     2    1
    35    24     8    1
    36    24    23    2
    37     5     6    1
    38     8    20    1
    39    38    23    1
    40    23    22    1
    41    20    35    1
    42    20    21    1
    43    22    21    2
    44    22    37    1
    45    21    36    1
    46     6    18    2
    47     2    18    1
    48    18     7    1
    49     7    43    1
    50     7    42    1
