@<TRIPOS>MOLECULE
CSD_code = VIYHOC | q = 0 | S = 0 | Stoichiometry = C13H15CoN12 | MND = 6
 41 44 0 0 0
SMALL
GASTEIGER

@<TRIPOS>ATOM
      1 CO          0.7280    3.0134    1.5730 Co.oh   1  UNL1        0.0000
      2 N           0.4336    5.7975    1.7472 N.2     1  UNL1        0.0000
      3 N           0.6530    6.8781    1.4758 N.2     1  UNL1        0.0000
      4 N           2.4296    3.8521    3.5869 N.2     1  UNL1        0.0000
      5 N           1.3103    1.2929    1.0333 N.2     1  UNL1        0.0000
      6 N           0.0728    4.7269    2.0571 N.2     1  UNL1        0.0000
      7 C          -1.3032    1.1117    5.3791 C.2     1  UNL1        0.0000
      8 H          -1.7524    0.7067    6.2728 H       1  UNL1        0.0000
      9 C          -2.3136    3.0878    2.3293 C.3     1  UNL1        0.0000
     10 H          -1.9564    4.1173    2.2545 H       1  UNL1        0.0000
     11 H          -3.3511    3.0935    2.6627 H       1  UNL1        0.0000
     12 N          -0.9130    2.6588    0.3395 N.4     1  UNL1        0.0000
     13 C          -0.8831    3.7597   -0.6213 C.3     1  UNL1        0.0000
     14 H          -1.3309    4.6447   -0.1546 H       1  UNL1        0.0000
     15 H          -1.4518    3.5296   -1.5339 H       1  UNL1        0.0000
     16 C           0.5500    4.0723   -0.9549 C.3     1  UNL1        0.0000
     17 N           1.4486    3.7677   -0.0086 N.pl3   1  UNL1        0.0000
     18 N           2.2806    3.3565    2.5334 N.2     1  UNL1        0.0000
     19 N           2.7376    4.2841    4.5884 N.2     1  UNL1        0.0000
     20 N           2.3363    0.9487    0.5850 N.2     1  UNL1        0.0000
     21 N          -0.1534    2.2093    3.0918 N.pl3   1  UNL1        0.0000
     22 C           0.5634    1.4787    3.9498 C.3     1  UNL1        0.0000
     23 H           1.6048    1.3278    3.7056 H       1  UNL1        0.0000
     24 C           0.0385    0.9187    5.0985 C.2     1  UNL1        0.0000
     25 H           0.6756    0.3499    5.7555 H       1  UNL1        0.0000
     26 C          -2.0585    1.8266    4.4677 C.2     1  UNL1        0.0000
     27 H          -3.1137    1.9804    4.6337 H       1  UNL1        0.0000
     28 C          -1.4643    2.3604    3.3296 C.2     1  UNL1        0.0000
     29 C          -2.2221    2.4266    0.9488 C.3     1  UNL1        0.0000
     30 H          -2.3754    1.3500    1.0631 H       1  UNL1        0.0000
     31 H          -3.0191    2.8188    0.3052 H       1  UNL1        0.0000
     32 C           0.9187    4.6557   -2.1555 C.2     1  UNL1        0.0000
     33 H           0.1627    4.8919   -2.8882 H       1  UNL1        0.0000
     34 C           2.7351    4.0220   -0.2410 C.2     1  UNL1        0.0000
     35 H           3.4224    3.7534    0.5490 H       1  UNL1        0.0000
     36 C           3.1792    4.6022   -1.4146 C.2     1  UNL1        0.0000
     37 H           4.2311    4.7907   -1.5514 H       1  UNL1        0.0000
     38 N           3.2626    0.4927    0.1137 N.2     1  UNL1        0.0000
     39 C           2.2552    4.9333   -2.3917 C.2     1  UNL1        0.0000
     40 H           2.5642    5.3940   -3.3169 H       1  UNL1        0.0000
     41 H          -0.6182    1.8111   -0.1456 H       1  UNL1        0.0000
@<TRIPOS>BOND
     1    40    39    1
     2    33    32    1
     3    39    32    2
     4    39    36    1
     5    32    16    1
     6    37    36    1
     7    15    13    1
     8    36    34    2
     9    16    13    1
    10    16    17    1
    11    13    14    1
    12    13    12    1
    13    34    17    1
    14    34    35    1
    15    41    12    1
    16    17     1    1
    17    38    20    2
    18    31    29    1
    19    12    29    1
    20    12     1    1
    21    20     5    2
    22    29    30    1
    23    29     9    1
    24     5     1    1
    25     3     2    2
    26     1     6    1
    27     1    18    1
    28     1    21    1
    29     2     6    2
    30    10     9    1
    31     9    11    1
    32     9    28    1
    33    18     4    2
    34    21    28    1
    35    21    22    1
    36    28    26    2
    37     4    19    2
    38    23    22    1
    39    22    24    1
    40    26    27    1
    41    26     7    1
    42    24     7    2
    43    24    25    1
    44     7     8    1
