@<TRIPOS>MOLECULE
CSD_code = VUGCAD | q = 0 | S = 0 | Stoichiometry = C34H43CoP4 | MND = 5
 82 87 0 0 0
SMALL
GASTEIGER

@<TRIPOS>ATOM
      1 CO          5.1435    8.5728    3.6177 Co.oh   1  UNL1        0.0000
      2 P           3.6949    6.8483    3.9349 P.3     1  UNL1        0.0000
      3 P           4.3069    9.4352    1.7753 P.3     1  UNL1        0.0000
      4 P           4.6578    9.9601    5.2408 P.3     1  UNL1        0.0000
      5 P           7.1919    7.9872    4.1364 P.3     1  UNL1        0.0000
      6 C           3.0770    6.2410    2.2903 C.3     1  UNL1        0.0000
      7 H           2.4446    5.3597    2.4395 H       1  UNL1        0.0000
      8 H           2.4453    7.0572    1.9187 H       1  UNL1        0.0000
      9 C           4.1966    5.9634    1.3524 C.2     1  UNL1        0.0000
     10 H           4.1753    5.0061    0.8459 H       1  UNL1        0.0000
     11 C           5.2307    6.7845    1.1213 C.2     1  UNL1        0.0000
     12 H           6.0054    6.4075    0.4561 H       1  UNL1        0.0000
     13 C           5.5119    8.0860    1.6879 C.3     1  UNL1        0.0000
     14 H           6.4634    8.4834    1.3165 H       1  UNL1        0.0000
     15 C           2.0543    6.9858    4.7283 C.ar    1  UNL1        0.0000
     16 C           1.2560    8.0315    4.2690 C.ar    1  UNL1        0.0000
     17 H           1.6451    8.6688    3.4852 H       1  UNL1        0.0000
     18 C           0.0020    8.2548    4.8000 C.ar    1  UNL1        0.0000
     19 H          -0.6084    9.0672    4.4305 H       1  UNL1        0.0000
     20 C          -0.4717    7.4363    5.8141 C.ar    1  UNL1        0.0000
     21 H          -1.4498    7.6091    6.2390 H       1  UNL1        0.0000
     22 C           0.3147    6.3961    6.2793 C.ar    1  UNL1        0.0000
     23 H          -0.0535    5.7534    7.0667 H       1  UNL1        0.0000
     24 C           1.5697    6.1671    5.7415 C.ar    1  UNL1        0.0000
     25 H           2.1666    5.3450    6.1093 H       1  UNL1        0.0000
     26 C           4.3505    5.3503    4.7313 C.ar    1  UNL1        0.0000
     27 C           4.6426    4.1660    4.0644 C.ar    1  UNL1        0.0000
     28 H           4.4154    4.0658    3.0147 H       1  UNL1        0.0000
     29 C           5.2399    3.1140    4.7383 C.ar    1  UNL1        0.0000
     30 H           5.4616    2.1973    4.2099 H       1  UNL1        0.0000
     31 C           5.5552    3.2288    6.0812 C.ar    1  UNL1        0.0000
     32 H           6.0193    2.4043    6.6027 H       1  UNL1        0.0000
     33 C           5.2805    4.4111    6.7526 C.ar    1  UNL1        0.0000
     34 H           5.5314    4.5085    7.8000 H       1  UNL1        0.0000
     35 C           4.6938    5.4638    6.0795 C.ar    1  UNL1        0.0000
     36 H           4.4900    6.3972    6.5883 H       1  UNL1        0.0000
     37 C           2.9915    9.1271    0.5422 C.ar    1  UNL1        0.0000
     38 C           3.2401    8.4445   -0.6444 C.ar    1  UNL1        0.0000
     39 H           4.2384    8.0909   -0.8577 H       1  UNL1        0.0000
     40 C           2.2142    8.2265   -1.5454 C.ar    1  UNL1        0.0000
     41 H           2.4113    7.6947   -2.4655 H       1  UNL1        0.0000
     42 C           0.9368    8.6911   -1.2757 C.ar    1  UNL1        0.0000
     43 H           0.1377    8.5160   -1.9815 H       1  UNL1        0.0000
     44 C           0.6867    9.3875   -0.1046 C.ar    1  UNL1        0.0000
     45 H          -0.3060    9.7618    0.1016 H       1  UNL1        0.0000
     46 C           1.7099    9.6038    0.7997 C.ar    1  UNL1        0.0000
     47 H           1.5241   10.1566    1.7119 H       1  UNL1        0.0000
     48 C           5.2197   10.7937    0.9790 C.ar    1  UNL1        0.0000
     49 C           6.3402   11.2475    1.6700 C.ar    1  UNL1        0.0000
     50 H           6.5868   10.7696    2.6125 H       1  UNL1        0.0000
     51 C           7.1117   12.2739    1.1650 C.ar    1  UNL1        0.0000
     52 H           7.9860   12.6134    1.7033 H       1  UNL1        0.0000
     53 C           6.7561   12.8765   -0.0323 C.ar    1  UNL1        0.0000
     54 H           7.3528   13.6843   -0.4307 H       1  UNL1        0.0000
     55 C           5.6291   12.4462   -0.7124 C.ar    1  UNL1        0.0000
     56 H           5.3473   12.9206   -1.6419 H       1  UNL1        0.0000
     57 C           4.8579   11.4113   -0.2122 C.ar    1  UNL1        0.0000
     58 H           3.9798   11.0846   -0.7512 H       1  UNL1        0.0000
     59 C           3.1962   11.0331    4.9480 C.3     1  UNL1        0.0000
     60 H           3.1030   11.7805    5.7359 H       1  UNL1        0.0000
     61 H           2.3021   10.4136    4.9271 H       1  UNL1        0.0000
     62 H           3.3102   11.5261    3.9833 H       1  UNL1        0.0000
     63 C           5.8706   11.2790    5.6692 C.3     1  UNL1        0.0000
     64 H           5.5033   11.8878    6.4949 H       1  UNL1        0.0000
     65 H           6.0189   11.9086    4.7932 H       1  UNL1        0.0000
     66 H           6.8246   10.8328    5.9423 H       1  UNL1        0.0000
     67 C           4.2292    9.3681    6.9295 C.3     1  UNL1        0.0000
     68 H           5.0702    8.8227    7.3530 H       1  UNL1        0.0000
     69 H           3.3763    8.6947    6.8495 H       1  UNL1        0.0000
     70 H           3.9728   10.2045    7.5794 H       1  UNL1        0.0000
     71 C           7.6232    7.7051    5.9038 C.3     1  UNL1        0.0000
     72 H           6.9740    6.9219    6.2908 H       1  UNL1        0.0000
     73 H           7.4587    8.6143    6.4784 H       1  UNL1        0.0000
     74 H           8.6635    7.3961    6.0022 H       1  UNL1        0.0000
     75 C           8.6425    9.0080    3.6382 C.3     1  UNL1        0.0000
     76 H           9.5710    8.5149    3.9244 H       1  UNL1        0.0000
     77 H           8.5861    9.9831    4.1191 H       1  UNL1        0.0000
     78 H           8.6260    9.1513    2.5593 H       1  UNL1        0.0000
     79 C           7.7395    6.3651    3.4758 C.3     1  UNL1        0.0000
     80 H           7.7714    6.4087    2.3900 H       1  UNL1        0.0000
     81 H           7.0165    5.6062    3.7695 H       1  UNL1        0.0000
     82 H           8.7243    6.1045    3.8631 H       1  UNL1        0.0000
@<TRIPOS>BOND
     1    41    40    1
     2    43    42    1
     3    56    55    1
     4    40    42   ar
     5    40    38   ar
     6    42    44   ar
     7    39    38    1
     8    58    57    1
     9    55    57   ar
    10    55    53   ar
    11    38    37   ar
    12    54    53    1
    13    57    48   ar
    14    44    45    1
    15    44    46   ar
    16    53    51   ar
    17    12    11    1
    18    37    46   ar
    19    37     3    1
    20    46    47    1
    21    10     9    1
    22    48    49   ar
    23    48     3    1
    24    11     9    2
    25    11    13    1
    26    51    49   ar
    27    51    52    1
    28    14    13    1
    29     9     6    1
    30    49    50    1
    31    13     3    1
    32    13     1    1
    33     3     1    1
    34     8     6    1
    35     6     7    1
    36     6     2    1
    37    80    79    1
    38    78    75    1
    39    28    27    1
    40    79    81    1
    41    79    82    1
    42    79     5    1
    43    17    16    1
    44     1     2    1
    45     1     5    1
    46     1     4    1
    47    75    76    1
    48    75    77    1
    49    75     5    1
    50     2    15    1
    51     2    26    1
    52    62    59    1
    53    27    26   ar
    54    27    29   ar
    55     5    71    1
    56    30    29    1
    57    16    15   ar
    58    16    18   ar
    59    19    18    1
    60    15    24   ar
    61    26    35   ar
    62    29    31   ar
    63    65    63    1
    64    18    20   ar
    65    61    59    1
    66    59     4    1
    67    59    60    1
    68     4    63    1
    69     4    67    1
    70    63    66    1
    71    63    64    1
    72    24    25    1
    73    24    22   ar
    74    20    21    1
    75    20    22   ar
    76    71    74    1
    77    71    72    1
    78    71    73    1
    79    35    36    1
    80    35    33   ar
    81    31    32    1
    82    31    33   ar
    83    22    23    1
    84    33    34    1
    85    69    67    1
    86    67    68    1
    87    67    70    1
