@<TRIPOS>MOLECULE
CSD_code = VUYFUR | q = 0 | S = 0 | Stoichiometry = C36H41CoO2P4 | MND = 5
 84 90 0 0 0
SMALL
GASTEIGER

@<TRIPOS>ATOM
      1 CO          2.4136    3.0073    2.8762 Co.oh   1  UNL1        0.0000
      2 P           0.3427    2.3839    3.2340 P.3     1  UNL1        0.0000
      3 P           3.5561    4.5316    1.7953 P.3     1  UNL1        0.0000
      4 P           3.0887    1.2232    1.8068 P.3     1  UNL1        0.0000
      5 P           3.5767    2.6885    4.9391 P.3     1  UNL1        0.0000
      6 O          -0.2181    3.3580    4.4154 O.3     1  UNL1        0.0000
      7 O           3.3203    5.9241    2.6046 O.3     1  UNL1        0.0000
      8 C           2.2448    5.8456    3.4771 C.ar    1  UNL1        0.0000
      9 C           1.6306    4.6047    3.6180 C.ar    1  UNL1        0.0000
     10 C           0.4743    4.5638    4.3919 C.ar    1  UNL1        0.0000
     11 C          -0.0005    5.6685    5.0769 C.ar    1  UNL1        0.0000
     12 H          -0.8985    5.5896    5.6708 H       1  UNL1        0.0000
     13 C           0.6840    6.8693    4.9647 C.ar    1  UNL1        0.0000
     14 H           0.3296    7.7386    5.4974 H       1  UNL1        0.0000
     15 C           1.7984    6.9726    4.1461 C.ar    1  UNL1        0.0000
     16 H           2.3114    7.9133    4.0154 H       1  UNL1        0.0000
     17 C          -0.8095    2.8095    1.8712 C.ar    1  UNL1        0.0000
     18 C          -0.3004    3.3112    0.6839 C.ar    1  UNL1        0.0000
     19 H           0.7728    3.4018    0.5724 H       1  UNL1        0.0000
     20 C          -1.1543    3.6970   -0.3339 C.ar    1  UNL1        0.0000
     21 H          -0.7491    4.0838   -1.2582 H       1  UNL1        0.0000
     22 C          -2.5237    3.5915   -0.1592 C.ar    1  UNL1        0.0000
     23 H          -3.1952    3.8935   -0.9502 H       1  UNL1        0.0000
     24 C          -3.0377    3.1052    1.0338 C.ar    1  UNL1        0.0000
     25 H          -4.1075    3.0334    1.1701 H       1  UNL1        0.0000
     26 C          -2.1850    2.7140    2.0488 C.ar    1  UNL1        0.0000
     27 H          -2.5772    2.3378    2.9841 H       1  UNL1        0.0000
     28 C          -0.4483    0.8431    3.7946 C.ar    1  UNL1        0.0000
     29 C          -0.7159    0.6036    5.1362 C.ar    1  UNL1        0.0000
     30 H          -0.5114    1.3748    5.8633 H       1  UNL1        0.0000
     31 C          -1.2649   -0.6036    5.5315 C.ar    1  UNL1        0.0000
     32 H          -1.4817   -0.7796    6.5757 H       1  UNL1        0.0000
     33 C          -1.5383   -1.5853    4.5939 C.ar    1  UNL1        0.0000
     34 H          -1.9662   -2.5273    4.9046 H       1  UNL1        0.0000
     35 C          -1.2674   -1.3553    3.2539 C.ar    1  UNL1        0.0000
     36 H          -1.4851   -2.1175    2.5191 H       1  UNL1        0.0000
     37 C          -0.7224   -0.1491    2.8575 C.ar    1  UNL1        0.0000
     38 H          -0.5228    0.0426    1.8108 H       1  UNL1        0.0000
     39 C           2.9895    4.9619    0.1132 C.ar    1  UNL1        0.0000
     40 C           3.5126    4.2874   -0.9864 C.ar    1  UNL1        0.0000
     41 H           4.3301    3.5925   -0.8410 H       1  UNL1        0.0000
     42 C           3.0057    4.5169   -2.2511 C.ar    1  UNL1        0.0000
     43 H           3.4208    3.9963   -3.1028 H       1  UNL1        0.0000
     44 C           1.9646    5.4155   -2.4283 C.ar    1  UNL1        0.0000
     45 H           1.5699    5.5949   -3.4180 H       1  UNL1        0.0000
     46 C           1.4303    6.0794   -1.3359 C.ar    1  UNL1        0.0000
     47 H           0.6161    6.7771   -1.4720 H       1  UNL1        0.0000
     48 C           1.9334    5.8474   -0.0685 C.ar    1  UNL1        0.0000
     49 H           1.5083    6.3526    0.7879 H       1  UNL1        0.0000
     50 C           5.3615    4.7472    1.5898 C.ar    1  UNL1        0.0000
     51 C           5.9016    5.6871    0.7214 C.ar    1  UNL1        0.0000
     52 H           5.2487    6.2755    0.0927 H       1  UNL1        0.0000
     53 C           7.2722    5.8667    0.6687 C.ar    1  UNL1        0.0000
     54 H           7.6930    6.5971   -0.0078 H       1  UNL1        0.0000
     55 C           8.1078    5.1163    1.4807 C.ar    1  UNL1        0.0000
     56 H           9.1776    5.2600    1.4334 H       1  UNL1        0.0000
     57 C           7.5713    4.1870    2.3567 C.ar    1  UNL1        0.0000
     58 H           8.2220    3.6072    2.9964 H       1  UNL1        0.0000
     59 C           6.2011    4.0081    2.4094 C.ar    1  UNL1        0.0000
     60 H           5.7531    3.2931    3.0867 H       1  UNL1        0.0000
     61 C           2.8065   -0.4133    2.5932 C.3     1  UNL1        0.0000
     62 H           1.7438   -0.5468    2.7863 H       1  UNL1        0.0000
     63 H           3.3328   -0.4437    3.5454 H       1  UNL1        0.0000
     64 H           3.1674   -1.2165    1.9510 H       1  UNL1        0.0000
     65 C           2.3175    0.9098    0.1687 C.3     1  UNL1        0.0000
     66 H           2.7008   -0.0139   -0.2646 H       1  UNL1        0.0000
     67 H           2.5343    1.7443   -0.4966 H       1  UNL1        0.0000
     68 H           1.2380    0.8383    0.2897 H       1  UNL1        0.0000
     69 C           4.8560    1.0063    1.3471 C.3     1  UNL1        0.0000
     70 H           5.4513    0.9214    2.2541 H       1  UNL1        0.0000
     71 H           5.1995    1.8756    0.7892 H       1  UNL1        0.0000
     72 H           4.9853    0.1077    0.7441 H       1  UNL1        0.0000
     73 C           2.4309    2.1404    6.2670 C.3     1  UNL1        0.0000
     74 H           2.0596    1.1442    6.0302 H       1  UNL1        0.0000
     75 H           1.5903    2.8296    6.3012 H       1  UNL1        0.0000
     76 H           2.9325    2.1282    7.2347 H       1  UNL1        0.0000
     77 C           4.9986    1.5810    5.3685 C.3     1  UNL1        0.0000
     78 H           5.2061    1.6286    6.4368 H       1  UNL1        0.0000
     79 H           5.8900    1.8820    4.8218 H       1  UNL1        0.0000
     80 H           4.7568    0.5546    5.0985 H       1  UNL1        0.0000
     81 C           4.1904    4.2329    5.7266 C.3     1  UNL1        0.0000
     82 H           4.6155    4.0211    6.7075 H       1  UNL1        0.0000
     83 H           3.3567    4.9254    5.8277 H       1  UNL1        0.0000
     84 H           4.9444    4.6949    5.0914 H       1  UNL1        0.0000
@<TRIPOS>BOND
     1    45    44    1
     2    43    42    1
     3    44    42   ar
     4    44    46   ar
     5    42    40   ar
     6    47    46    1
     7    46    48   ar
     8    21    20    1
     9    40    41    1
    10    40    39   ar
    11    23    22    1
    12    67    65    1
    13    20    22   ar
    14    20    18   ar
    15    66    65    1
    16    22    24   ar
    17    48    39   ar
    18    48    49    1
    19    54    53    1
    20    52    51    1
    21    39     3    1
    22    65    68    1
    23    65     4    1
    24    19    18    1
    25    53    51   ar
    26    53    55   ar
    27    18    17   ar
    28    51    50   ar
    29    72    69    1
    30    71    69    1
    31    24    25    1
    32    24    26   ar
    33    69     4    1
    34    69    70    1
    35    56    55    1
    36    55    57   ar
    37    50     3    1
    38    50    59   ar
    39     3     7    1
    40     3     1    1
    41     4    61    1
    42     4     1    1
    43    38    37    1
    44    17    26   ar
    45    17     2    1
    46    64    61    1
    47    26    27    1
    48    57    59   ar
    49    57    58    1
    50    59    60    1
    51    36    35    1
    52    61    62    1
    53    61    63    1
    54     7     8    1
    55    37    35   ar
    56    37    28   ar
    57     1     2    1
    58     1     9    1
    59     1     5    1
    60     2    28    1
    61     2     6    1
    62    35    33   ar
    63     8     9   ar
    64     8    15   ar
    65     9    10   ar
    66    28    29   ar
    67    16    15    1
    68    15    13   ar
    69    10     6    1
    70    10    11   ar
    71    33    34    1
    72    33    31   ar
    73    79    77    1
    74     5    77    1
    75     5    81    1
    76     5    73    1
    77    13    11   ar
    78    13    14    1
    79    11    12    1
    80    84    81    1
    81    80    77    1
    82    29    31   ar
    83    29    30    1
    84    77    78    1
    85    31    32    1
    86    81    83    1
    87    81    82    1
    88    74    73    1
    89    73    75    1
    90    73    76    1
