@<TRIPOS>MOLECULE
CSD_code = WAXGIN | q = 1 | S = 0 | Stoichiometry = C16H24CoN10S2(1+) | MND = 6
 53 58 0 0 0
SMALL
GASTEIGER

@<TRIPOS>ATOM
      1 CO          7.0771    1.0438   13.5262 Co.oh   1  UNL1        0.0000
      2 S           8.5375    2.3353   14.6853 S.3     1  UNL1        0.0000
      3 S           8.8099    0.0999   12.4072 S.3     1  UNL1        0.0000
      4 N           5.8965   -0.2841   12.7764 N.pl3   1  UNL1        0.0000
      5 N           7.1770   -0.1202   14.9682 N.pl3   1  UNL1        0.0000
      6 N           5.1801   -0.5818   11.6877 N.3     1  UNL1        0.0000
      7 H           5.1490    0.0386   10.8920 H       1  UNL1        0.0000
      8 N           7.9050    0.1149   16.0397 N.2     1  UNL1        0.0000
      9 N           9.3810    1.5600   17.0477 N.pl3   1  UNL1        0.0000
     10 H           9.9399    2.3959   16.9484 H       1  UNL1        0.0000
     11 N           5.6222    2.0856   14.2437 N.pl3   1  UNL1        0.0000
     12 N           6.9594    2.2044   12.0825 N.pl3   1  UNL1        0.0000
     13 N           4.8394    2.2262   15.3181 N.3     1  UNL1        0.0000
     14 H           4.9291    1.6179   16.1187 H       1  UNL1        0.0000
     15 N           7.7513    2.1386   11.0327 N.2     1  UNL1        0.0000
     16 N           9.5665    1.0856   10.0955 N.pl3   1  UNL1        0.0000
     17 H          10.2608    0.3576   10.1875 H       1  UNL1        0.0000
     18 C           3.7286   -2.3534   10.7346 C.3     1  UNL1        0.0000
     19 H           2.9414   -1.6562   10.4518 H       1  UNL1        0.0000
     20 H           3.2732   -3.2788   11.0730 H       1  UNL1        0.0000
     21 H           4.3269   -2.5652    9.8491 H       1  UNL1        0.0000
     22 C           4.5744   -1.7846   11.8084 C.3     1  UNL1        0.0000
     23 C           4.9199   -2.2823   13.0481 C.2     1  UNL1        0.0000
     24 H           4.6223   -3.2148   13.4786 H       1  UNL1        0.0000
     25 C           5.7563   -1.3121   13.6251 C.2     1  UNL1        0.0000
     26 C           6.4741   -1.2030   14.8534 C.3     1  UNL1        0.0000
     27 H           6.4635   -1.9670   15.6174 H       1  UNL1        0.0000
     28 C           8.6090    1.2267   16.0199 C.2     1  UNL1        0.0000
     29 C           9.6640    0.7041   18.1797 C.3     1  UNL1        0.0000
     30 H           8.9856   -0.1469   18.1187 H       1  UNL1        0.0000
     31 H           9.4585    1.2649   19.0965 H       1  UNL1        0.0000
     32 C          11.1152    0.2392   18.1671 C.3     1  UNL1        0.0000
     33 H          11.3025   -0.4024   19.0227 H       1  UNL1        0.0000
     34 H          11.7921    1.0890   18.2188 H       1  UNL1        0.0000
     35 H          11.3253   -0.3207   17.2595 H       1  UNL1        0.0000
     36 C           3.0272    3.6497   16.2355 C.3     1  UNL1        0.0000
     37 H           2.4008    4.4658   15.8893 H       1  UNL1        0.0000
     38 H           3.5511    3.9718   17.1347 H       1  UNL1        0.0000
     39 H           2.3919    2.8053   16.4987 H       1  UNL1        0.0000
     40 C           3.9934    3.2717   15.1795 C.3     1  UNL1        0.0000
     41 C           4.2464    3.8281   13.9424 C.2     1  UNL1        0.0000
     42 H           3.7649    4.6745   13.5008 H       1  UNL1        0.0000
     43 C           5.2812    3.0577   13.3862 C.2     1  UNL1        0.0000
     44 C           6.0324    3.1056   12.1739 C.3     1  UNL1        0.0000
     45 H           5.8739    3.8494   11.4064 H       1  UNL1        0.0000
     46 C           8.6843    1.2110   11.0785 C.2     1  UNL1        0.0000
     47 C           9.6263    1.9214    8.9165 C.3     1  UNL1        0.0000
     48 H          10.5679    2.4800    8.9268 H       1  UNL1        0.0000
     49 H           8.7970    2.6263    8.9778 H       1  UNL1        0.0000
     50 C           9.5383    1.0808    7.6493 C.3     1  UNL1        0.0000
     51 H           9.5889    1.7257    6.7773 H       1  UNL1        0.0000
     52 H           8.6022    0.5291    7.6195 H       1  UNL1        0.0000
     53 H          10.3621    0.3727    7.6008 H       1  UNL1        0.0000
@<TRIPOS>BOND
     1    51    50    1
     2    53    50    1
     3    52    50    1
     4    50    47    1
     5    47    48    1
     6    47    49    1
     7    47    16    1
     8    21    18    1
     9    16    17    1
    10    16    46    1
    11    19    18    1
    12    18    20    1
    13    18    22    1
    14     7     6    1
    15    15    46    2
    16    15    12    1
    17    46     3    1
    18    45    44    1
    19     6    22    1
    20     6     4    1
    21    22    23    1
    22    12    44    1
    23    12     1    1
    24    44    43    1
    25     3     1    1
    26     4     1    1
    27     4    25    1
    28    23    24    1
    29    23    25    2
    30    43    41    2
    31    43    11    1
    32    42    41    1
    33     1    11    1
    34     1     2    1
    35     1     5    1
    36    25    26    1
    37    41    40    1
    38    11    13    1
    39     2    28    1
    40    26     5    1
    41    26    27    1
    42     5     8    1
    43    40    13    1
    44    40    36    1
    45    13    14    1
    46    37    36    1
    47    28     8    2
    48    28     9    1
    49    36    39    1
    50    36    38    1
    51    10     9    1
    52     9    29    1
    53    35    32    1
    54    30    29    1
    55    32    29    1
    56    32    34    1
    57    32    33    1
    58    29    31    1
