@<TRIPOS>MOLECULE
CSD_code = WEGGEU | q = -1 | S = 0 | Stoichiometry = C34H32CoN4O10(1-) | MND = 6
 81 88 0 0 0
SMALL
GASTEIGER

@<TRIPOS>ATOM
      1 CO         12.1566    2.7580    3.3275 Co.oh   1  UNL1        0.0000
      2 O          11.3706    1.0905    2.9627 O.3     1  UNL1        0.0000
      3 O          13.3259    2.5172    1.8838 O.3     1  UNL1        0.0000
      4 O          14.5418   -1.6198    6.4106 O.3     1  UNL1        0.0000
      5 O          10.0557    5.3631   -1.4053 O.3     1  UNL1        0.0000
      6 O          14.7286    2.8923    6.3010 O.3     1  UNL1        0.0000
      7 O           9.0689    5.1295    2.7520 O.3     1  UNL1        0.0000
      8 O          12.9456    4.4673    3.7462 O.3     1  UNL1        0.0000
      9 O          10.9601    3.0391    4.8132 O.3     1  UNL1        0.0000
     10 O          14.2427    5.3202    5.3596 O.2     1  UNL1        0.0000
     11 O           9.2080    4.3495    5.2856 O.2     1  UNL1        0.0000
     12 N          14.3264    3.4353   -1.3914 N.ar    1  UNL1        0.0000
     13 N          10.7727   -2.2535    3.9903 N.ar    1  UNL1        0.0000
     14 N          10.9112    3.6847    2.3148 N.3     1  UNL1        0.0000
     15 N          13.3678    2.0476    4.5394 N.3     1  UNL1        0.0000
     16 C          15.3090    1.8060    0.0714 C.3     1  UNL1        0.0000
     17 C          10.7522   -1.1403    3.3045 C.ar    1  UNL1        0.0000
     18 C           9.8987   -1.1084    2.0745 C.3     1  UNL1        0.0000
     19 C          14.2695    2.8403   -0.2286 C.ar    1  UNL1        0.0000
     20 C          11.5109    0.0241    3.6700 C.ar    1  UNL1        0.0000
     21 C          13.2578    3.1237    0.7520 C.ar    1  UNL1        0.0000
     22 C          12.3667   -0.1163    4.7995 C.ar    1  UNL1        0.0000
     23 C          12.2574    4.0643    0.3713 C.ar    1  UNL1        0.0000
     24 C          12.3753    4.7144   -0.8782 C.ar    1  UNL1        0.0000
     25 C          13.1748   -1.5125    6.7689 C.3     1  UNL1        0.0000
     26 C          11.4060    5.7765   -1.3285 C.3     1  UNL1        0.0000
     27 C          12.3392   -1.3251    5.5299 C.ar    1  UNL1        0.0000
     28 C          13.4191    4.3604   -1.7042 C.ar    1  UNL1        0.0000
     29 C          11.5269   -2.3427    5.0856 C.ar    1  UNL1        0.0000
     30 C          13.2699    0.9290    5.1622 C.3     1  UNL1        0.0000
     31 C          11.1220    4.3010    1.2073 C.3     1  UNL1        0.0000
     32 C          14.3761    2.9878    4.9483 C.3     1  UNL1        0.0000
     33 C           9.6640    3.8893    3.0020 C.3     1  UNL1        0.0000
     34 C           9.9634    3.7575    4.5299 C.2     1  UNL1        0.0000
     35 C          13.8021    4.4135    4.6692 C.2     1  UNL1        0.0000
     36 C           8.6939    2.7294    2.6230 C.3     1  UNL1        0.0000
     37 C          15.6308    2.8142    4.0422 C.3     1  UNL1        0.0000
     38 C           8.4658    2.7185    1.1453 C.ar    1  UNL1        0.0000
     39 C          16.2083    1.4501    4.2456 C.ar    1  UNL1        0.0000
     40 C           7.3902    3.3920    0.5803 C.ar    1  UNL1        0.0000
     41 C          17.2051    1.2322    5.1882 C.ar    1  UNL1        0.0000
     42 C          17.6854   -0.0446    5.4186 C.ar    1  UNL1        0.0000
     43 C           7.2187    3.4182   -0.7919 C.ar    1  UNL1        0.0000
     44 C          17.1706   -1.1197    4.7146 C.ar    1  UNL1        0.0000
     45 C           8.1261    2.7783   -1.6192 C.ar    1  UNL1        0.0000
     46 C           9.2088    2.1133   -1.0652 C.ar    1  UNL1        0.0000
     47 C          16.1729   -0.9123    3.7780 C.ar    1  UNL1        0.0000
     48 C           9.3780    2.0835    0.3074 C.ar    1  UNL1        0.0000
     49 C          15.6941    0.3635    3.5448 C.ar    1  UNL1        0.0000
     50 H          10.4939   -0.7959    1.2188 H       1  UNL1        0.0000
     51 H          15.9099    1.6285   -0.8161 H       1  UNL1        0.0000
     52 H          15.9540    2.1400    0.8828 H       1  UNL1        0.0000
     53 H          14.8304    0.8820    0.3899 H       1  UNL1        0.0000
     54 H           9.4860   -2.0976    1.8975 H       1  UNL1        0.0000
     55 H           9.0858   -0.3935    2.1910 H       1  UNL1        0.0000
     56 H          12.8534   -2.4323    7.2828 H       1  UNL1        0.0000
     57 H          15.0904   -1.4543    7.1834 H       1  UNL1        0.0000
     58 H          13.0132   -0.6665    7.4505 H       1  UNL1        0.0000
     59 H          11.4187    6.6184   -0.6281 H       1  UNL1        0.0000
     60 H          10.0211    4.4544   -1.7267 H       1  UNL1        0.0000
     61 H          11.7299    6.1484   -2.3140 H       1  UNL1        0.0000
     62 H          13.5518    4.8243   -2.6736 H       1  UNL1        0.0000
     63 H          11.4681   -3.2877    5.6098 H       1  UNL1        0.0000
     64 H          13.9452    0.7572    5.9939 H       1  UNL1        0.0000
     65 H          10.3675    5.0029    0.8627 H       1  UNL1        0.0000
     66 H           8.8243    5.4664    3.6343 H       1  UNL1        0.0000
     67 H          14.7169    3.8160    6.6169 H       1  UNL1        0.0000
     68 H          16.3406    3.5950    4.3232 H       1  UNL1        0.0000
     69 H          15.3094    2.9583    3.0111 H       1  UNL1        0.0000
     70 H           7.7644    2.8988    3.1698 H       1  UNL1        0.0000
     71 H           9.1557    1.7996    2.9539 H       1  UNL1        0.0000
     72 H          17.5987    2.0685    5.7482 H       1  UNL1        0.0000
     73 H           6.6883    3.9035    1.2223 H       1  UNL1        0.0000
     74 H          18.4627   -0.2017    6.1549 H       1  UNL1        0.0000
     75 H           6.3774    3.9441   -1.2201 H       1  UNL1        0.0000
     76 H           7.9906    2.8000   -2.6920 H       1  UNL1        0.0000
     77 H          17.5409   -2.1178    4.9003 H       1  UNL1        0.0000
     78 H           9.9262    1.6168   -1.7051 H       1  UNL1        0.0000
     79 H          15.7589   -1.7496    3.2362 H       1  UNL1        0.0000
     80 H          10.2217    1.5700    0.7429 H       1  UNL1        0.0000
     81 H          14.9110    0.5299    2.8206 H       1  UNL1        0.0000
@<TRIPOS>BOND
     1    76    45    1
     2    62    28    1
     3    61    26    1
     4    60     5    1
     5    78    46    1
     6    28    12   ar
     7    28    24   ar
     8    45    46   ar
     9    45    43   ar
    10     5    26    1
    11    12    19   ar
    12    26    24    1
    13    26    59    1
    14    75    43    1
    15    46    48   ar
    16    24    23   ar
    17    51    16    1
    18    43    40   ar
    19    19    16    1
    20    19    21   ar
    21    16    53    1
    22    16    52    1
    23    48    80    1
    24    48    38   ar
    25    23    21   ar
    26    23    31    1
    27    40    38   ar
    28    40    73    1
    29    21     3    1
    30    65    31    1
    31    38    36    1
    32    31    14    1
    33    50    18    1
    34     3     1    1
    35    54    18    1
    36    18    55    1
    37    18    17    1
    38    14    33    1
    39    14     1    1
    40    36    71    1
    41    36    33    1
    42    36    70    1
    43     7    33    1
    44     7    66    1
    45    81    49    1
    46     2     1    1
    47     2    20    1
    48    33    34    1
    49    69    37    1
    50    79    47    1
    51    17    20   ar
    52    17    13   ar
    53     1     8    1
    54     1    15    1
    55     1     9    1
    56    49    47   ar
    57    49    39   ar
    58    20    22   ar
    59     8    35    1
    60    47    44   ar
    61    13    29   ar
    62    37    39    1
    63    37    68    1
    64    37    32    1
    65    39    41   ar
    66    34     9    1
    67    34    11    2
    68    15    32    1
    69    15    30    1
    70    35    32    1
    71    35    10    2
    72    44    77    1
    73    44    42   ar
    74    22    30    1
    75    22    27   ar
    76    32     6    1
    77    29    27   ar
    78    29    63    1
    79    30    64    1
    80    41    42   ar
    81    41    72    1
    82    42    74    1
    83    27    25    1
    84     6    67    1
    85     4    25    1
    86     4    57    1
    87    25    56    1
    88    25    58    1
