@<TRIPOS>MOLECULE
CSD_code = WEZFIR | q = 0 | S = 0 | Stoichiometry = C31H47BCoN7 | MND = 4
 87 92 0 0 0
SMALL
GASTEIGER

@<TRIPOS>ATOM
      1 CO          0.4709    4.9817   16.4140 Co.oh   1  UNL1        0.0000
      2 B           1.2849    7.4009   14.5851 B       1  UNL1        0.0000
      3 N          -2.1216    6.3561   15.2815 N.pl3   1  UNL1        0.0000
      4 N          -0.2394    7.1973   14.6445 N.pl3   1  UNL1        0.0000
      5 C          -0.7710    6.1899   15.3603 C.3     1  UNL1        0.0000
      6 C          -2.4036    7.4869   14.5594 C.2     1  UNL1        0.0000
      7 H          -3.3928    7.8425   14.3695 H       1  UNL1        0.0000
      8 C          -1.2205    8.0130   14.1722 C.2     1  UNL1        0.0000
      9 H          -1.0188    8.9118   13.6284 H       1  UNL1        0.0000
     10 C          -3.1430    5.5257   15.9186 C.3     1  UNL1        0.0000
     11 C          -4.5498    5.9234   15.4604 C.3     1  UNL1        0.0000
     12 H          -4.8137    6.9242   15.7947 H       1  UNL1        0.0000
     13 H          -5.2651    5.2293   15.8955 H       1  UNL1        0.0000
     14 H          -4.6421    5.8674   14.3778 H       1  UNL1        0.0000
     15 C          -2.9024    4.0665   15.5303 C.3     1  UNL1        0.0000
     16 H          -2.9834    3.9464   14.4518 H       1  UNL1        0.0000
     17 H          -3.6350    3.4220   16.0096 H       1  UNL1        0.0000
     18 H          -1.9019    3.7722   15.8400 H       1  UNL1        0.0000
     19 C          -3.0314    5.7332   17.4307 C.3     1  UNL1        0.0000
     20 H          -2.0305    5.4574   17.7540 H       1  UNL1        0.0000
     21 H          -3.7626    5.1263   17.9578 H       1  UNL1        0.0000
     22 H          -3.2020    6.7795   17.6782 H       1  UNL1        0.0000
     23 N           1.9067    6.0519   14.1883 N.pl3   1  UNL1        0.0000
     24 N           2.3600    3.9417   14.1541 N.pl3   1  UNL1        0.0000
     25 C           1.6510    4.8960   14.8213 C.3     1  UNL1        0.0000
     26 C           2.7609    5.8429   13.1481 C.2     1  UNL1        0.0000
     27 H           3.1005    6.6317   12.5097 H       1  UNL1        0.0000
     28 C           3.0478    4.5234   13.1205 C.2     1  UNL1        0.0000
     29 H           3.6819    3.9863   12.4494 H       1  UNL1        0.0000
     30 C           2.3534    2.5050   14.4267 C.3     1  UNL1        0.0000
     31 C           0.9206    2.0035   14.2326 C.3     1  UNL1        0.0000
     32 H           0.6038    2.1693   13.2046 H       1  UNL1        0.0000
     33 H           0.2558    2.5534   14.8943 H       1  UNL1        0.0000
     34 H           0.8527    0.9412   14.4509 H       1  UNL1        0.0000
     35 C           3.2772    1.7490   13.4673 C.3     1  UNL1        0.0000
     36 H           2.9543    1.8564   12.4342 H       1  UNL1        0.0000
     37 H           3.2456    0.6914   13.7185 H       1  UNL1        0.0000
     38 H           4.3074    2.0854   13.5614 H       1  UNL1        0.0000
     39 C           2.8430    2.2786   15.8574 C.3     1  UNL1        0.0000
     40 H           3.8624    2.6435   15.9676 H       1  UNL1        0.0000
     41 H           2.8225    1.2200   16.1041 H       1  UNL1        0.0000
     42 H           2.2006    2.8262   16.5432 H       1  UNL1        0.0000
     43 N           1.8427    7.1969   18.1671 N.pl3   1  UNL1        0.0000
     44 N           1.6350    7.6380   16.0649 N.pl3   1  UNL1        0.0000
     45 C           1.4550    6.6633   16.9740 C.3     1  UNL1        0.0000
     46 C           2.1977    8.5092   17.9885 C.2     1  UNL1        0.0000
     47 H           2.5145    9.1544   18.7788 H       1  UNL1        0.0000
     48 C           2.0541    8.7810   16.6721 C.2     1  UNL1        0.0000
     49 H           2.1913    9.7026   16.1464 H       1  UNL1        0.0000
     50 C           1.9421    6.4882   19.4426 C.3     1  UNL1        0.0000
     51 C           0.5342    6.1039   19.8990 C.3     1  UNL1        0.0000
     52 H          -0.0754    6.9954   20.0348 H       1  UNL1        0.0000
     53 H           0.5738    5.5611   20.8401 H       1  UNL1        0.0000
     54 H           0.0755    5.4783   19.1364 H       1  UNL1        0.0000
     55 C           2.8171    5.2516   19.2249 C.3     1  UNL1        0.0000
     56 H           3.8140    5.5505   18.9068 H       1  UNL1        0.0000
     57 H           2.3763    4.6292   18.4497 H       1  UNL1        0.0000
     58 H           2.9015    4.6776   20.1437 H       1  UNL1        0.0000
     59 C           2.5921    7.3649   20.5172 C.3     1  UNL1        0.0000
     60 H           3.5842    7.6927   20.2141 H       1  UNL1        0.0000
     61 H           2.6957    6.7780   21.4269 H       1  UNL1        0.0000
     62 H           1.9794    8.2333   20.7492 H       1  UNL1        0.0000
     63 N           0.0293    3.7090   17.3987 N.3     1  UNL1        0.0000
     64 C          -0.3304    2.6020   18.2173 C.3     1  UNL1        0.0000
     65 C          -1.6351    2.8863   18.9907 C.3     1  UNL1        0.0000
     66 H          -1.5446    3.7976   19.5775 H       1  UNL1        0.0000
     67 H          -1.8502    2.0600   19.6658 H       1  UNL1        0.0000
     68 H          -2.4652    2.9959   18.2990 H       1  UNL1        0.0000
     69 C          -0.5526    1.3323   17.3698 C.3     1  UNL1        0.0000
     70 H          -1.2973    1.5135   16.5979 H       1  UNL1        0.0000
     71 H          -0.9022    0.5213   18.0058 H       1  UNL1        0.0000
     72 H           0.3759    1.0282   16.8966 H       1  UNL1        0.0000
     73 C           0.7777    2.3022   19.2483 C.3     1  UNL1        0.0000
     74 H           0.8805    3.1317   19.9418 H       1  UNL1        0.0000
     75 H           1.7315    2.1423   18.7509 H       1  UNL1        0.0000
     76 H           0.5246    1.4055   19.8108 H       1  UNL1        0.0000
     77 C           1.8093    8.5057   13.5351 C.ar    1  UNL1        0.0000
     78 C           1.1750    8.6930   12.3059 C.ar    1  UNL1        0.0000
     79 H           0.2989    8.1074   12.0658 H       1  UNL1        0.0000
     80 C           1.6538    9.5831   11.3605 C.ar    1  UNL1        0.0000
     81 H           1.1284    9.7070   10.4232 H       1  UNL1        0.0000
     82 C           2.8087   10.3044   11.6064 C.ar    1  UNL1        0.0000
     83 H           3.1828   11.0063   10.8746 H       1  UNL1        0.0000
     84 C           3.4956   10.0898   12.7881 C.ar    1  UNL1        0.0000
     85 H           4.4229   10.6135   12.9768 H       1  UNL1        0.0000
     86 C           3.0063    9.1967   13.7257 C.ar    1  UNL1        0.0000
     87 H           3.5902    9.0142   14.6166 H       1  UNL1        0.0000
@<TRIPOS>BOND
     1    81    80    1
     2    83    82    1
     3    80    82   ar
     4    80    78   ar
     5    82    84   ar
     6    79    78    1
     7    78    77   ar
     8    36    35    1
     9    29    28    1
    10    27    26    1
    11    84    85    1
    12    84    86   ar
    13    28    26    2
    14    28    24    1
    15    26    23    1
    16    32    31    1
    17    35    38    1
    18    35    37    1
    19    35    30    1
    20    77    86   ar
    21    77     2    1
    22     9     8    1
    23    86    87    1
    24    24    30    1
    25    24    25    1
    26     8     6    2
    27     8     4    1
    28    23     2    1
    29    23    25    1
    30    31    30    1
    31    31    34    1
    32    31    33    1
    33     7     6    1
    34    14    11    1
    35    30    39    1
    36    16    15    1
    37     6     3    1
    38     2     4    1
    39     2    44    1
    40     4     5    1
    41    25     1    1
    42     3     5    1
    43     3    10    1
    44     5     1    1
    45    11    12    1
    46    11    13    1
    47    11    10    1
    48    15    18    1
    49    15    10    1
    50    15    17    1
    51    39    40    1
    52    39    41    1
    53    39    42    1
    54    10    19    1
    55    44    48    1
    56    44    45    1
    57    49    48    1
    58     1    45    1
    59     1    63    1
    60    70    69    1
    61    48    46    2
    62    72    69    1
    63    45    43    1
    64    69    71    1
    65    69    64    1
    66    63    64    1
    67    19    22    1
    68    19    20    1
    69    19    21    1
    70    46    43    1
    71    46    47    1
    72    43    50    1
    73    64    65    1
    74    64    73    1
    75    68    65    1
    76    57    55    1
    77    75    73    1
    78    56    55    1
    79    65    66    1
    80    65    67    1
    81    54    51    1
    82    55    50    1
    83    55    58    1
    84    73    76    1
    85    73    74    1
    86    50    51    1
    87    50    59    1
    88    51    52    1
    89    51    53    1
    90    60    59    1
    91    59    62    1
    92    59    61    1
