@<TRIPOS>MOLECULE
CSD_code = WIMQIU | q = 1 | S = 0 | Stoichiometry = C30H32CoN6O4(1+) | MND = 6
 73 82 0 0 0
SMALL
GASTEIGER

@<TRIPOS>ATOM
      1 CO          4.7166   11.7591   10.9766 Co.oh   1  UNL1        0.0000
      2 O           3.4166   13.0004   11.5739 O.3     1  UNL1        0.0000
      3 O           2.0424   11.3480   14.3477 O.3     1  UNL1        0.0000
      4 O           5.7980   10.4284   10.1723 O.3     1  UNL1        0.0000
      5 O           7.7247   12.3055    7.9214 O.3     1  UNL1        0.0000
      6 N           5.2617   11.1238   12.7003 N.pl3   1  UNL1        0.0000
      7 N           3.3120   10.4784   11.0552 N.pl3   1  UNL1        0.0000
      8 N           3.0863   12.8251   12.9215 N.3     1  UNL1        0.0000
      9 N           6.0256   13.1595   11.0061 N.pl3   1  UNL1        0.0000
     10 N           4.3214   12.2995    9.1958 N.pl3   1  UNL1        0.0000
     11 N           6.9753   10.9544    9.6311 N.3     1  UNL1        0.0000
     12 C           6.5216   10.7621   12.9492 C.3     1  UNL1        0.0000
     13 H           7.2308   10.8883   12.1444 H       1  UNL1        0.0000
     14 C           6.9081   10.2254   14.1635 C.2     1  UNL1        0.0000
     15 H           7.9372    9.9453   14.3200 H       1  UNL1        0.0000
     16 C           5.9604   10.0511   15.1615 C.2     1  UNL1        0.0000
     17 H           6.2326    9.6333   16.1182 H       1  UNL1        0.0000
     18 C           4.6522   10.4207   14.9009 C.2     1  UNL1        0.0000
     19 H           3.8626   10.3100   15.6263 H       1  UNL1        0.0000
     20 C           4.3503   10.9503   13.6580 C.2     1  UNL1        0.0000
     21 C           2.9479   11.4068   13.2850 C.3     1  UNL1        0.0000
     22 C           2.5314   10.4893   12.1392 C.3     1  UNL1        0.0000
     23 C           1.4114    9.6769   12.2529 C.2     1  UNL1        0.0000
     24 H           0.8210    9.7305   13.1539 H       1  UNL1        0.0000
     25 C           1.0988    8.8149   11.2183 C.2     1  UNL1        0.0000
     26 H           0.2359    8.1707   11.2828 H       1  UNL1        0.0000
     27 C           1.9286    8.7882   10.1060 C.2     1  UNL1        0.0000
     28 H           1.7369    8.1181    9.2837 H       1  UNL1        0.0000
     29 C           3.0182    9.6359   10.0648 C.2     1  UNL1        0.0000
     30 H           3.7037    9.6307    9.2303 H       1  UNL1        0.0000
     31 C           1.5128   12.6531   14.5832 C.3     1  UNL1        0.0000
     32 H           2.0042   13.0837   15.4625 H       1  UNL1        0.0000
     33 H           0.4440   12.5541   14.7748 H       1  UNL1        0.0000
     34 C           1.8235   13.4717   13.3221 C.3     1  UNL1        0.0000
     35 C           2.1057   14.9399   13.6255 C.3     1  UNL1        0.0000
     36 H           2.9124   15.0288   14.3483 H       1  UNL1        0.0000
     37 H           1.2154   15.4167   14.0252 H       1  UNL1        0.0000
     38 H           2.4012   15.4453   12.7102 H       1  UNL1        0.0000
     39 C           0.7156   13.3428   12.2734 C.3     1  UNL1        0.0000
     40 H           1.0597   13.7789   11.3385 H       1  UNL1        0.0000
     41 H          -0.1713   13.8738   12.6072 H       1  UNL1        0.0000
     42 H           0.4599   12.2982   12.1037 H       1  UNL1        0.0000
     43 C           6.0690   14.0596   11.9898 C.3     1  UNL1        0.0000
     44 H           5.3614   13.9325   12.7958 H       1  UNL1        0.0000
     45 C           6.9525   15.1233   11.9771 C.2     1  UNL1        0.0000
     46 H           6.9512   15.8280   12.7928 H       1  UNL1        0.0000
     47 C           7.8249   15.2689   10.9083 C.2     1  UNL1        0.0000
     48 H           8.5237   16.0898   10.8704 H       1  UNL1        0.0000
     49 C           7.7758   14.3379    9.8851 C.2     1  UNL1        0.0000
     50 H           8.4194   14.3902    9.0220 H       1  UNL1        0.0000
     51 C           6.8607   13.3033    9.9767 C.2     1  UNL1        0.0000
     52 C           6.7462   12.2189    8.9154 C.3     1  UNL1        0.0000
     53 C           5.3433   12.3851    8.3396 C.3     1  UNL1        0.0000
     54 C           5.1578   12.6570    6.9910 C.2     1  UNL1        0.0000
     55 H           6.0228   12.7132    6.3492 H       1  UNL1        0.0000
     56 C           3.8755   12.8640    6.5174 C.2     1  UNL1        0.0000
     57 H           3.7041   13.0801    5.4745 H       1  UNL1        0.0000
     58 C           2.8202   12.8027    7.4169 C.2     1  UNL1        0.0000
     59 H           1.8055   12.9784    7.0986 H       1  UNL1        0.0000
     60 C           3.0871   12.5147    8.7410 C.2     1  UNL1        0.0000
     61 H           2.2995   12.4803    9.4792 H       1  UNL1        0.0000
     62 C           8.4927   11.1018    7.9180 C.3     1  UNL1        0.0000
     63 H           9.4442   11.2832    8.4299 H       1  UNL1        0.0000
     64 H           8.6830   10.8267    6.8805 H       1  UNL1        0.0000
     65 C           7.6517   10.0622    8.6722 C.3     1  UNL1        0.0000
     66 C           8.5029    9.0659    9.4531 C.3     1  UNL1        0.0000
     67 H           9.1717    9.5889   10.1315 H       1  UNL1        0.0000
     68 H           9.0912    8.4607    8.7696 H       1  UNL1        0.0000
     69 H           7.8533    8.4180   10.0352 H       1  UNL1        0.0000
     70 C           6.6847    9.3291    7.7389 C.3     1  UNL1        0.0000
     71 H           5.9879    8.7460    8.3365 H       1  UNL1        0.0000
     72 H           7.2383    8.6605    7.0859 H       1  UNL1        0.0000
     73 H           6.1231   10.0348    7.1289 H       1  UNL1        0.0000
@<TRIPOS>BOND
     1    57    56    1
     2    55    54    1
     3    56    54    2
     4    56    58    1
     5    64    62    1
     6    54    53    1
     7    72    70    1
     8    59    58    1
     9    73    70    1
    10    58    60    2
    11    70    71    1
    12    70    65    1
    13    62     5    1
    14    62    63    1
    15    62    65    1
    16     5    52    1
    17    53    52    1
    18    53    10    1
    19    65    66    1
    20    65    11    1
    21    60    10    1
    22    60    61    1
    23    68    66    1
    24    52    11    1
    25    52    51    1
    26    50    49    1
    27    10     1    1
    28    30    29    1
    29    28    27    1
    30    66    69    1
    31    66    67    1
    32    11     4    1
    33    49    51    2
    34    49    47    1
    35    51     9    1
    36    29    27    2
    37    29     7    1
    38    27    25    1
    39     4     1    1
    40    48    47    1
    41    47    45    2
    42     1     9    1
    43     1     7    1
    44     1     2    1
    45     1     6    1
    46     9    43    1
    47     7    22    1
    48    25    26    1
    49    25    23    2
    50    40    39    1
    51     2     8    1
    52    45    43    1
    53    45    46    1
    54    43    44    1
    55    42    39    1
    56    22    23    1
    57    22    21    1
    58    13    12    1
    59    23    24    1
    60    39    41    1
    61    39    34    1
    62     6    12    1
    63     6    20    1
    64    38    35    1
    65     8    21    1
    66     8    34    1
    67    12    14    1
    68    21    20    1
    69    21     3    1
    70    34    35    1
    71    34    31    1
    72    35    37    1
    73    35    36    1
    74    20    18    2
    75    14    15    1
    76    14    16    2
    77     3    31    1
    78    31    33    1
    79    31    32    1
    80    18    16    1
    81    18    19    1
    82    16    17    1
