@<TRIPOS>MOLECULE
CSD_code = WIWRAY | q = 1 | S = 0 | Stoichiometry = C38H48CoN6O2(1+) | MND = 6
 95 102 0 0 0
SMALL
GASTEIGER

@<TRIPOS>ATOM
      1 CO          2.6329   14.8408    4.5898 Co.oh   1  UNL1        0.0000
      2 O           2.7174   13.1576    3.7719 O.3     1  UNL1        0.0000
      3 O           2.5549   14.0177    6.2698 O.3     1  UNL1        0.0000
      4 N           5.1690   15.3859    3.9597 N.2     1  UNL1        0.5000
      5 N           0.8602   14.6975    4.3512 N.pl3   1  UNL1        0.0000
      6 N           3.1055   15.6747    2.9426 N.pl3   1  UNL1        0.5000
      7 N           0.0910   15.6391    4.7634 N.2     1  UNL1        0.5000
      8 N           2.1515   16.5090    5.3748 N.pl3   1  UNL1        0.5000
      9 C           3.7300   13.8230    6.7574 C.ar    1  UNL1        0.0000
     10 N           4.4045   14.8915    4.8644 N.pl3   1  UNL1        0.0000
     11 C           4.4579   15.8211    2.8931 C.2     1  UNL1        0.0000
     12 C           0.4323   13.5450    3.8207 C.ar    1  UNL1        0.0000
     13 C           1.2748   11.4118    2.9631 C.ar    1  UNL1        0.0000
     14 C          -1.1509   11.9344    3.0460 C.ar    1  UNL1        0.0000
     15 C          -0.0436   11.0946    2.7487 C.ar    1  UNL1        0.0000
     16 H          -0.2657   10.1295    2.3260 H       1  UNL1        0.0000
     17 C           1.5447   12.6946    3.5178 C.ar    1  UNL1        0.0000
     18 C           2.8584   12.5780    8.7909 C.3     1  UNL1        0.0000
     19 C           4.8376   14.3224    5.9973 C.ar    1  UNL1        0.0000
     20 C           0.1590   17.7712    5.8601 C.2     1  UNL1        0.0000
     21 H          -0.9145   17.8284    5.7968 H       1  UNL1        0.0000
     22 C           2.4301   10.4738    2.6582 C.3     1  UNL1        0.0000
     23 C           0.7977   16.6454    5.3285 C.2     1  UNL1        0.0000
     24 C           5.3265   13.0634    8.3592 C.ar    1  UNL1        0.0000
     25 H           5.5452   12.5616    9.2848 H       1  UNL1        0.0000
     26 C           2.8742   17.4659    5.9515 C.2     1  UNL1        0.0000
     27 H           3.9459   17.3208    5.9777 H       1  UNL1        0.0000
     28 C           4.0073   13.1540    7.9808 C.ar    1  UNL1        0.0000
     29 C           6.4247   13.5739    7.6224 C.ar    1  UNL1        0.0000
     30 C           2.9420   16.6251    0.7685 C.2     1  UNL1        0.0000
     31 H           2.3102   16.9247   -0.0506 H       1  UNL1        0.0000
     32 C           2.1134   11.5561    7.9201 C.3     1  UNL1        0.0000
     33 H           1.2848   11.1283    8.4785 H       1  UNL1        0.0000
     34 H           2.7838   10.7520    7.6238 H       1  UNL1        0.0000
     35 H           1.7174   12.0270    7.0246 H       1  UNL1        0.0000
     36 C           3.3735   11.1568    1.6584 C.3     1  UNL1        0.0000
     37 H           4.2038   10.4962    1.4231 H       1  UNL1        0.0000
     38 H           3.7745   12.0770    2.0741 H       1  UNL1        0.0000
     39 H           2.8451   11.3895    0.7359 H       1  UNL1        0.0000
     40 C           5.0911   16.3826    1.7790 C.2     1  UNL1        0.0000
     41 H           6.1640   16.4745    1.7916 H       1  UNL1        0.0000
     42 C           6.1698   14.1951    6.4273 C.ar    1  UNL1        0.0000
     43 H           6.9442   14.5931    5.7925 H       1  UNL1        0.0000
     44 C           2.3786   16.0665    1.8994 C.2     1  UNL1        0.0000
     45 H           1.3079   15.9290    1.9705 H       1  UNL1        0.0000
     46 C          -3.6288   12.4262    3.1613 C.3     1  UNL1        0.0000
     47 H          -4.6087   12.0144    2.9336 H       1  UNL1        0.0000
     48 H          -3.5263   13.3623    2.6177 H       1  UNL1        0.0000
     49 H          -3.5891   12.6249    4.2294 H       1  UNL1        0.0000
     50 C          -2.6733   11.1701    1.2390 C.3     1  UNL1        0.0000
     51 H          -3.6751   10.8194    1.0060 H       1  UNL1        0.0000
     52 H          -1.9659   10.4205    0.8964 H       1  UNL1        0.0000
     53 H          -2.4942   12.0886    0.6846 H       1  UNL1        0.0000
     54 C           1.9103   13.7208    9.1803 C.3     1  UNL1        0.0000
     55 H           1.0821   13.3311    9.7663 H       1  UNL1        0.0000
     56 H           1.5069   14.2047    8.2950 H       1  UNL1        0.0000
     57 H           2.4365   14.4633    9.7769 H       1  UNL1        0.0000
     58 C          -2.5487   11.4236    2.7482 C.3     1  UNL1        0.0000
     59 C          -0.9042   13.1653    3.5887 C.ar    1  UNL1        0.0000
     60 H          -1.6764   13.8657    3.8560 H       1  UNL1        0.0000
     61 C           4.3241   16.7859    0.7088 C.2     1  UNL1        0.0000
     62 H           4.7860   17.2175   -0.1650 H       1  UNL1        0.0000
     63 C           2.3052   18.5998    6.4980 C.2     1  UNL1        0.0000
     64 H           2.9339   19.3452    6.9556 H       1  UNL1        0.0000
     65 C           3.1767   10.1876    3.9690 C.3     1  UNL1        0.0000
     66 H           4.0107    9.5162    3.7814 H       1  UNL1        0.0000
     67 H           2.5091    9.7188    4.6891 H       1  UNL1        0.0000
     68 H           3.5648   11.1062    4.4006 H       1  UNL1        0.0000
     69 C           7.8577   13.4306    8.1104 C.3     1  UNL1        0.0000
     70 C          -2.7840   10.1169    3.5194 C.3     1  UNL1        0.0000
     71 H          -3.7996    9.7690    3.3496 H       1  UNL1        0.0000
     72 H          -2.6502   10.2781    4.5867 H       1  UNL1        0.0000
     73 H          -2.1040    9.3314    3.2029 H       1  UNL1        0.0000
     74 C           1.9657    9.1448    2.0595 C.3     1  UNL1        0.0000
     75 H           2.8335    8.5200    1.8635 H       1  UNL1        0.0000
     76 H           1.4457    9.2973    1.1166 H       1  UNL1        0.0000
     77 H           1.3178    8.6069    2.7475 H       1  UNL1        0.0000
     78 C           3.3303   11.8784   10.0670 C.3     1  UNL1        0.0000
     79 H           2.4666   11.4852   10.5972 H       1  UNL1        0.0000
     80 H           3.8418   12.5705   10.7317 H       1  UNL1        0.0000
     81 H           3.9886   11.0437    9.8383 H       1  UNL1        0.0000
     82 C           0.9217   18.7542    6.4499 C.2     1  UNL1        0.0000
     83 H           0.4557   19.6307    6.8717 H       1  UNL1        0.0000
     84 C           8.5119   14.8192    8.1597 C.3     1  UNL1        0.0000
     85 H           9.5263   14.7355    8.5406 H       1  UNL1        0.0000
     86 H           7.9517   15.4782    8.8196 H       1  UNL1        0.0000
     87 H           8.5594   15.2756    7.1755 H       1  UNL1        0.0000
     88 C           7.9564   12.8095    9.5060 C.3     1  UNL1        0.0000
     89 H           9.0010   12.7703    9.8050 H       1  UNL1        0.0000
     90 H           7.5739   11.7918    9.5170 H       1  UNL1        0.0000
     91 H           7.4226   13.4060   10.2423 H       1  UNL1        0.0000
     92 C           8.6184   12.5330    7.1236 C.3     1  UNL1        0.0000
     93 H           9.6483   12.4137    7.4500 H       1  UNL1        0.0000
     94 H           8.6235   12.9597    6.1245 H       1  UNL1        0.0000
     95 H           8.1574   11.5491    7.0739 H       1  UNL1        0.0000
@<TRIPOS>BOND
     1    62    61    1
     2    31    30    1
     3    53    50    1
     4    61    30    1
     5    61    40    2
     6    39    36    1
     7    30    44    2
     8    52    50    1
     9    51    50    1
    10    76    74    1
    11    50    58    1
    12    37    36    1
    13    36    38    1
    14    36    22    1
    15    40    41    1
    16    40    11    1
    17    75    74    1
    18    44    45    1
    19    44     6    1
    20    74    22    1
    21    74    77    1
    22    16    15    1
    23    48    46    1
    24    22    13    1
    25    22    65    1
    26    58    14    1
    27    58    46    1
    28    58    70    1
    29    15    13   ar
    30    15    14   ar
    31    11     6    1
    32    11     4    2
    33    47    46    1
    34     6     1    1
    35    13    17   ar
    36    14    59   ar
    37    46    49    1
    38    73    70    1
    39    71    70    1
    40    17     2    1
    41    17    12   ar
    42    70    72    1
    43    59    12   ar
    44    59    60    1
    45     2     1    1
    46    66    65    1
    47    12     5    1
    48     4    10    1
    49    65    68    1
    50    65    67    1
    51     5     1    1
    52     5     7    1
    53     1    10    1
    54     1     8    1
    55     1     3    1
    56     7    23    2
    57    10    19    1
    58    23     8    1
    59    23    20    1
    60     8    26    1
    61    43    42    1
    62    21    20    1
    63    20    82    2
    64    26    27    1
    65    26    63    2
    66    19    42   ar
    67    19     9   ar
    68    94    92    1
    69     3     9    1
    70    42    29   ar
    71    82    63    1
    72    82    83    1
    73    63    64    1
    74     9    28   ar
    75    35    32    1
    76    95    92    1
    77    92    93    1
    78    92    69    1
    79    87    84    1
    80    29    69    1
    81    29    24   ar
    82    34    32    1
    83    32    33    1
    84    32    18    1
    85    28    24   ar
    86    28    18    1
    87    69    84    1
    88    69    88    1
    89    84    85    1
    90    84    86    1
    91    56    54    1
    92    24    25    1
    93    18    54    1
    94    18    78    1
    95    54    55    1
    96    54    57    1
    97    88    90    1
    98    88    89    1
    99    88    91    1
   100    81    78    1
   101    78    79    1
   102    78    80    1
