@<TRIPOS>MOLECULE
CSD_code = WIZHUL | q = 0 | S = 0 | Stoichiometry = C25H25Cl2CoN4O | MND = 6
 58 64 0 0 0
SMALL
GASTEIGER

@<TRIPOS>ATOM
      1 CO          4.3646   13.2928    9.7439 Co.oh   1  UNL1        0.0000
      2 CL          2.4931   13.0632    8.4733 Cl      1  UNL1        0.0000
      3 CL          3.3699   14.4281   11.2585 Cl      1  UNL1        0.0000
      4 O           6.0176   13.2491   10.6724 O.3     1  UNL1        0.0000
      5 N           5.1089   12.3623    8.4251 N.pl3   1  UNL1        0.0000
      6 N           3.9878   11.5331   10.4412 N.pl3   1  UNL1        0.5000
      7 N           4.1525    9.3441   10.0974 N.pl3   1  UNL1        0.5000
      8 H           4.3732    8.4712    9.6487 H       1  UNL1        0.0000
      9 N           4.9490   14.8102    8.7272 N.pl3   1  UNL1        0.0000
     10 C           5.0831   11.0223    8.4198 C.2     1  UNL1        0.0000
     11 C           5.5799   13.0494    7.3871 C.2     1  UNL1        0.0000
     12 C           6.0915   12.4226    6.2517 C.2     1  UNL1        0.0000
     13 C           5.4797   14.4671    7.5986 C.3     1  UNL1        0.0000
     14 C           4.4376   10.5836    9.6269 C.2     1  UNL1        0.0000
     15 C           6.0951   11.0318    6.2453 C.2     1  UNL1        0.0000
     16 H           6.4871   10.4981    5.3924 H       1  UNL1        0.0000
     17 C           5.9601   15.3603    6.4981 C.3     1  UNL1        0.0000
     18 H           6.3149   16.3125    6.8953 H       1  UNL1        0.0000
     19 H           5.1072   15.5750    5.8448 H       1  UNL1        0.0000
     20 C           3.4754    9.5063   11.2823 C.ar    1  UNL1        0.0000
     21 C           3.3767   10.9025   11.4897 C.ar    1  UNL1        0.0000
     22 C           2.9445    8.5966   12.1835 C.ar    1  UNL1        0.0000
     23 H           3.0213    7.5326   12.0196 H       1  UNL1        0.0000
     24 C           5.5825   10.3212    7.3266 C.2     1  UNL1        0.0000
     25 H           5.5699    9.2425    7.3136 H       1  UNL1        0.0000
     26 C           4.9260   16.1749    9.1076 C.ar    1  UNL1        0.0000
     27 C           7.0568   14.6511    5.6967 C.3     1  UNL1        0.0000
     28 H           7.3748   15.2911    4.8725 H       1  UNL1        0.0000
     29 H           7.9193   14.4824    6.3456 H       1  UNL1        0.0000
     30 C           6.0967   16.7334    9.6403 C.ar    1  UNL1        0.0000
     31 C           3.7648   16.9411    8.9636 C.ar    1  UNL1        0.0000
     32 C           6.5801   13.3036    5.1436 C.3     1  UNL1        0.0000
     33 H           5.7566   13.4699    4.4412 H       1  UNL1        0.0000
     34 H           7.3861   12.8118    4.5958 H       1  UNL1        0.0000
     35 C           2.3111    9.1159   13.2943 C.ar    1  UNL1        0.0000
     36 H           1.8823    8.4409   14.0195 H       1  UNL1        0.0000
     37 C           2.7303   11.4087   12.6150 C.ar    1  UNL1        0.0000
     38 H           2.6503   12.4750   12.7565 H       1  UNL1        0.0000
     39 C           6.0753   18.0590   10.0460 C.ar    1  UNL1        0.0000
     40 H           6.9713   18.4912   10.4673 H       1  UNL1        0.0000
     41 C           3.7899   18.2653    9.3808 C.ar    1  UNL1        0.0000
     42 H           2.8936   18.8590    9.2802 H       1  UNL1        0.0000
     43 C           2.2062   10.4948   13.5029 C.ar    1  UNL1        0.0000
     44 H           1.6966   10.8495   14.3855 H       1  UNL1        0.0000
     45 C           6.1415   13.2913   12.0480 C.3     1  UNL1        0.0000
     46 H           5.6616   12.4338   12.5444 H       1  UNL1        0.0000
     47 H           5.7388   14.2150   12.4818 H       1  UNL1        0.0000
     48 H           7.2188   13.2506   12.2655 H       1  UNL1        0.0000
     49 C           2.5129   16.3615    8.3940 C.3     1  UNL1        0.0000
     50 H           2.7112   15.7458    7.5188 H       1  UNL1        0.0000
     51 H           1.8112   17.1481    8.1276 H       1  UNL1        0.0000
     52 H           2.0436   15.7186    9.1387 H       1  UNL1        0.0000
     53 C           4.9299   18.8235    9.9242 C.ar    1  UNL1        0.0000
     54 H           4.9279   19.8523   10.2523 H       1  UNL1        0.0000
     55 C           7.3542   15.9273    9.7662 C.3     1  UNL1        0.0000
     56 H           7.1226   14.9121   10.0838 H       1  UNL1        0.0000
     57 H           8.0229   16.3859   10.4904 H       1  UNL1        0.0000
     58 H           7.8775   15.8739    8.8095 H       1  UNL1        0.0000
@<TRIPOS>BOND
     1    33    32    1
     2    34    32    1
     3    28    27    1
     4    32    27    1
     5    32    12    1
     6    16    15    1
     7    27    29    1
     8    27    17    1
     9    19    17    1
    10    15    12    1
    11    15    24    2
    12    12    11    2
    13    17    18    1
    14    17    13    1
    15    25    24    1
    16    24    10    1
    17    11    13    1
    18    11     5    1
    19    50    49    1
    20    13     9    1
    21    51    49    1
    22    49    31    1
    23    49    52    1
    24    10     5    1
    25    10    14    2
    26     5     1    1
    27     2     1    1
    28     9    26    1
    29     9     1    1
    30    58    55    1
    31    31    26   ar
    32    31    41   ar
    33    26    30   ar
    34    42    41    1
    35    41    53   ar
    36    14     7    1
    37    14     6    1
    38    30    55    1
    39    30    39   ar
    40     8     7    1
    41     1     6    1
    42     1     4    1
    43     1     3    1
    44    55    56    1
    45    55    57    1
    46    53    39   ar
    47    53    54    1
    48    39    40    1
    49     7    20    1
    50     6    21    1
    51     4    45    1
    52    20    21   ar
    53    20    22   ar
    54    21    37   ar
    55    23    22    1
    56    45    48    1
    57    45    47    1
    58    45    46    1
    59    22    35   ar
    60    37    38    1
    61    37    43   ar
    62    35    43   ar
    63    35    36    1
    64    43    44    1
