@<TRIPOS>MOLECULE
CSD_code = WOMSUO | q = 1 | S = 0 | Stoichiometry = C26H29CoN7O3(1+) | MND = 6
 66 72 0 0 0
SMALL
GASTEIGER

@<TRIPOS>ATOM
      1 CO          3.3228    9.8760    7.5740 Co.oh   1  UNL1        0.0000
      2 C           2.7819   10.7727    5.1452 C.ar    1  UNL1        0.0000
      3 O           2.2151   10.7206    6.3216 O.3     1  UNL1        0.0000
      4 C           2.1650   11.3616    4.0319 C.ar    1  UNL1        0.0000
      5 H           1.1848   11.7967    4.1511 H       1  UNL1        0.0000
      6 C           2.8141   11.3790    2.8166 C.ar    1  UNL1        0.0000
      7 H           2.3350   11.8352    1.9638 H       1  UNL1        0.0000
      8 C           4.0789   10.8175    2.6756 C.ar    1  UNL1        0.0000
      9 H           4.5736   10.8407    1.7177 H       1  UNL1        0.0000
     10 C           4.7087   10.2322    3.7553 C.ar    1  UNL1        0.0000
     11 H           5.6910    9.8054    3.6237 H       1  UNL1        0.0000
     12 C           4.0712   10.2028    4.9945 C.ar    1  UNL1        0.0000
     13 N           4.5543    9.6601    6.1844 N.pl3   1  UNL1        0.0000
     14 C           5.7160    9.0846    6.2818 C.3     1  UNL1        0.0000
     15 H           6.3390    9.0190    5.3934 H       1  UNL1        0.0000
     16 C           6.2733    8.5241    7.4578 C.ar    1  UNL1        0.0000
     17 C           5.5688    8.5437    8.6887 C.ar    1  UNL1        0.0000
     18 O           4.3890    9.0395    8.8509 O.3     1  UNL1        0.0000
     19 C           6.2101    7.9776    9.8382 C.ar    1  UNL1        0.0000
     20 O           5.4595    8.0658   10.9832 O.3     1  UNL1        0.0000
     21 C           5.9807    7.4915   12.1578 C.3     1  UNL1        0.0000
     22 H           6.1560    6.4183   12.0363 H       1  UNL1        0.0000
     23 H           5.2242    7.6476   12.9254 H       1  UNL1        0.0000
     24 H           6.9122    7.9779   12.4643 H       1  UNL1        0.0000
     25 C           7.4592    7.4192    9.7412 C.ar    1  UNL1        0.0000
     26 H           7.9414    6.9893   10.6044 H       1  UNL1        0.0000
     27 C           8.1347    7.3994    8.5126 C.ar    1  UNL1        0.0000
     28 H           9.1152    6.9536    8.4625 H       1  UNL1        0.0000
     29 C           7.5589    7.9397    7.4002 C.ar    1  UNL1        0.0000
     30 H           8.0803    7.9292    6.4549 H       1  UNL1        0.0000
     31 N           4.1565   11.5498    8.0333 N.pl3   1  UNL1        0.0000
     32 C           4.7300   11.8098    9.1946 C.3     1  UNL1        0.0000
     33 H           4.7715   11.1304   10.0225 H       1  UNL1        0.0000
     34 N           5.2707   13.0341    9.2016 N.pl3   1  UNL1        0.0000
     35 C           5.9842   13.6552   10.2826 C.3     1  UNL1        0.0000
     36 H           5.4822   14.5741   10.5892 H       1  UNL1        0.0000
     37 H           7.0004   13.9016    9.9717 H       1  UNL1        0.0000
     38 H           6.0275   12.9727   11.1284 H       1  UNL1        0.0000
     39 C           5.0266   13.5881    7.9810 C.2     1  UNL1        0.0000
     40 H           5.3556   14.5724    7.7205 H       1  UNL1        0.0000
     41 C           4.3351   12.6593    7.2628 C.2     1  UNL1        0.0000
     42 H           3.9631   12.7282    6.2608 H       1  UNL1        0.0000
     43 N           2.5378    8.1770    7.1307 N.pl3   1  UNL1        0.0000
     44 C           2.0440    7.7775    5.9731 C.3     1  UNL1        0.0000
     45 H           1.9968    8.3680    5.0789 H       1  UNL1        0.0000
     46 N           1.5949    6.5184    6.0495 N.pl3   1  UNL1        0.0000
     47 C           0.9958    5.7521    4.9923 C.3     1  UNL1        0.0000
     48 H           0.9460    6.3563    4.0890 H       1  UNL1        0.0000
     49 H          -0.0129    5.4456    5.2726 H       1  UNL1        0.0000
     50 H           1.5879    4.8582    4.7909 H       1  UNL1        0.0000
     51 C           1.8158    6.0902    7.3242 C.2     1  UNL1        0.0000
     52 H           1.5488    5.1071    7.6523 H       1  UNL1        0.0000
     53 C           2.3996    7.1267    7.9879 C.2     1  UNL1        0.0000
     54 H           2.7363    7.1819    9.0026 H       1  UNL1        0.0000
     55 N           1.9780   10.1436    8.9562 N.pl3   1  UNL1        0.0000
     56 C           0.8012   10.7124    8.7842 C.3     1  UNL1        0.0000
     57 H           0.4570   11.1158    7.8533 H       1  UNL1        0.0000
     58 N           0.0986   10.7215    9.9246 N.pl3   1  UNL1        0.0000
     59 C          -1.2227   11.2499   10.1209 C.3     1  UNL1        0.0000
     60 H          -1.5835   11.6790    9.1888 H       1  UNL1        0.0000
     61 H          -1.2112   12.0247   10.8889 H       1  UNL1        0.0000
     62 H          -1.9046   10.4587   10.4365 H       1  UNL1        0.0000
     63 C           0.8720   10.1243   10.8761 C.2     1  UNL1        0.0000
     64 H           0.5411   10.0011   11.8865 H       1  UNL1        0.0000
     65 C           2.0368    9.7697   10.2645 C.2     1  UNL1        0.0000
     66 H           2.8994    9.2754   10.6643 H       1  UNL1        0.0000
@<TRIPOS>BOND
     1     9     8    1
     2     7     6    1
     3     8     6   ar
     4     8    10   ar
     5     6     4   ar
     6    11    10    1
     7    10    12   ar
     8     4     5    1
     9     4     2   ar
    10    48    47    1
    11    50    47    1
    12    47    49    1
    13    47    46    1
    14    12     2   ar
    15    12    13    1
    16    45    44    1
    17     2     3    1
    18    15    14    1
    19    44    46    1
    20    44    43    1
    21    46    51    1
    22    13    14    1
    23    13     1    1
    24    42    41    1
    25    14    16    1
    26     3     1    1
    27    30    29    1
    28    43     1    1
    29    43    53    1
    30    41    39    2
    31    41    31    1
    32    51    52    1
    33    51    53    2
    34    29    16   ar
    35    29    27   ar
    36    16    17   ar
    37     1    31    1
    38     1    18    1
    39     1    55    1
    40    40    39    1
    41    57    56    1
    42    39    34    1
    43    53    54    1
    44    31    32    1
    45    28    27    1
    46    27    25   ar
    47    17    18    1
    48    17    19   ar
    49    56    55    1
    50    56    58    1
    51    55    65    1
    52    60    59    1
    53    32    34    1
    54    32    33    1
    55    34    35    1
    56    25    19   ar
    57    25    26    1
    58    19    20    1
    59    58    59    1
    60    58    63    1
    61    37    35    1
    62    59    62    1
    63    59    61    1
    64    65    66    1
    65    65    63    2
    66    35    36    1
    67    35    38    1
    68    63    64    1
    69    20    21    1
    70    22    21    1
    71    21    24    1
    72    21    23    1
