@<TRIPOS>MOLECULE
CSD_code = XAKGAU | q = 0 | S = 0 | Stoichiometry = C43H38Cl2CoN5 | MND = 6
 89 98 0 0 0
SMALL
GASTEIGER

@<TRIPOS>ATOM
      1 CO          5.6549    9.0704   17.6690 Co.oh   1  UNL1        0.0000
      2 CL          4.3597    7.4054   16.9732 Cl      1  UNL1        0.0000
      3 CL          6.7158   10.8801   18.3967 Cl      1  UNL1        0.0000
      4 N           7.4451    7.9624   17.4133 N.pl3   1  UNL1        0.0000
      5 C           5.2633    8.5886   19.5040 C.3     1  UNL1        0.0000
      6 C           3.4391    9.9994   19.1138 C.ar    1  UNL1        0.0000
      7 N           4.4394   10.6491   15.7179 N.pl3   1  UNL1        0.0000
      8 N           5.7779    7.8300   20.4832 N.pl3   1  UNL1        0.0000
      9 C           7.4531    9.2062   14.4981 C.ar    1  UNL1        0.0000
     10 N           4.1359    9.1728   20.0052 N.pl3   1  UNL1        0.0000
     11 C           5.0250   11.7637   11.8154 C.ar    1  UNL1        0.0000
     12 H           5.2352   12.0211   10.7886 H       1  UNL1        0.0000
     13 C           4.0865   10.0401   17.8917 C.ar    1  UNL1        0.0000
     14 C           3.9340    8.7885   21.3089 C.ar    1  UNL1        0.0000
     15 C           6.1404    7.2120   13.7362 C.3     1  UNL1        0.0000
     16 H           5.5734    7.7369   12.9665 H       1  UNL1        0.0000
     17 H           5.5290    7.1895   14.6383 H       1  UNL1        0.0000
     18 H           6.3102    6.1910   13.4055 H       1  UNL1        0.0000
     19 C           8.6127   11.2935   15.2618 C.3     1  UNL1        0.0000
     20 H           8.0829   11.3311   16.2141 H       1  UNL1        0.0000
     21 H           8.0929   11.9549   14.5680 H       1  UNL1        0.0000
     22 H           9.6209   11.6703   15.4106 H       1  UNL1        0.0000
     23 C           9.8588    7.9408   13.9841 C.ar    1  UNL1        0.0000
     24 C           3.5976   10.7807   16.8303 C.ar    1  UNL1        0.0000
     25 C           3.5547   11.9768   13.7346 C.ar    1  UNL1        0.0000
     26 H           2.6609   12.3792   14.1807 H       1  UNL1        0.0000
     27 C           2.4276   11.5083   16.9897 C.ar    1  UNL1        0.0000
     28 H           2.0126   12.1007   16.1907 H       1  UNL1        0.0000
     29 C           2.9724    9.0777   22.2669 C.ar    1  UNL1        0.0000
     30 H           2.1471    9.7395   22.0648 H       1  UNL1        0.0000
     31 C           8.6570    7.2909   13.7477 C.ar    1  UNL1        0.0000
     32 H           8.6645    6.2810   13.3634 H       1  UNL1        0.0000
     33 N           6.2219    9.8644   14.7511 N.pl3   1  UNL1        0.0000
     34 C           1.7844   11.4642   18.2191 C.ar    1  UNL1        0.0000
     35 H           0.8731   12.0287   18.3491 H       1  UNL1        0.0000
     36 C           5.5382    9.8609   15.9051 C.3     1  UNL1        0.0000
     37 C           5.8950   10.9396   12.5024 C.ar    1  UNL1        0.0000
     38 H           6.7867   10.5394   12.0444 H       1  UNL1        0.0000
     39 C           8.6427    9.8942   14.7339 C.ar    1  UNL1        0.0000
     40 C          10.4047    4.5426   20.1695 C.3     1  UNL1        0.0000
     41 H          11.3106    5.1412   20.1130 H       1  UNL1        0.0000
     42 H          10.3539    3.8922   19.2986 H       1  UNL1        0.0000
     43 H          10.4694    3.9098   21.0552 H       1  UNL1        0.0000
     44 C           9.8362    9.2412   14.4701 C.ar    1  UNL1        0.0000
     45 H          10.7690    9.7559   14.6508 H       1  UNL1        0.0000
     46 C           5.1298    7.3270   22.8597 C.ar    1  UNL1        0.0000
     47 H           5.9542    6.6640   23.0740 H       1  UNL1        0.0000
     48 C           4.4198   11.1511   14.4390 C.ar    1  UNL1        0.0000
     49 C           9.2922    6.7421   20.6416 C.ar    1  UNL1        0.0000
     50 H          10.2622    7.1508   20.8862 H       1  UNL1        0.0000
     51 C           8.1758    7.5613   20.7259 C.ar    1  UNL1        0.0000
     52 C           3.1076    8.4837   23.5074 C.ar    1  UNL1        0.0000
     53 H           2.3734    8.6914   24.2710 H       1  UNL1        0.0000
     54 C           9.1894    5.4159   20.2490 C.ar    1  UNL1        0.0000
     55 C           5.4453    5.1325   19.6798 C.3     1  UNL1        0.0000
     56 H           4.9852    5.7081   18.8761 H       1  UNL1        0.0000
     57 H           4.7843    5.1861   20.5454 H       1  UNL1        0.0000
     58 H           5.5203    4.0954   19.3648 H       1  UNL1        0.0000
     59 C           6.7956    5.6834   20.0125 C.ar    1  UNL1        0.0000
     60 C           5.5753   10.6422   13.8170 C.ar    1  UNL1        0.0000
     61 C           2.2677   10.7214   19.2875 C.ar    1  UNL1        0.0000
     62 H           1.7303   10.7180   20.2217 H       1  UNL1        0.0000
     63 C           7.4389    7.9074   13.9958 C.ar    1  UNL1        0.0000
     64 C           6.9370    7.0158   20.3974 C.ar    1  UNL1        0.0000
     65 C           4.1647    7.6244   23.8020 C.ar    1  UNL1        0.0000
     66 H           4.2284    7.1851   24.7858 H       1  UNL1        0.0000
     67 C           7.9372    4.9000   19.9448 C.ar    1  UNL1        0.0000
     68 H           7.8481    3.8658   19.6446 H       1  UNL1        0.0000
     69 C          11.1670    7.2634   13.7085 C.3     1  UNL1        0.0000
     70 H          11.0317    6.1921   13.5823 H       1  UNL1        0.0000
     71 H          11.8674    7.4383   14.5229 H       1  UNL1        0.0000
     72 H          11.6112    7.6618   12.7963 H       1  UNL1        0.0000
     73 C           4.9982    7.9193   21.6144 C.ar    1  UNL1        0.0000
     74 C           3.8775   12.2700   12.4232 C.ar    1  UNL1        0.0000
     75 H           3.2217   12.9096   11.8522 H       1  UNL1        0.0000
     76 C           9.8005    6.5020   17.0748 C.2     1  UNL1        0.0000
     77 H          10.7113    5.9368   16.9441 H       1  UNL1        0.0000
     78 C           8.6395    8.5105   17.6305 C.3     1  UNL1        0.0000
     79 H           8.6441    9.5438   17.9463 H       1  UNL1        0.0000
     80 C           8.5634    5.9275   16.8465 C.2     1  UNL1        0.0000
     81 H           8.4726    4.9002   16.5308 H       1  UNL1        0.0000
     82 C           7.4228    6.6877   17.0277 C.2     1  UNL1        0.0000
     83 H           6.4482    6.2559   16.8514 H       1  UNL1        0.0000
     84 C           9.8304    7.8250   17.4766 C.2     1  UNL1        0.0000
     85 H          10.7633    8.3302   17.6709 H       1  UNL1        0.0000
     86 C           8.2816    8.9898   21.1560 C.3     1  UNL1        0.0000
     87 H           9.3188    9.2640   21.3281 H       1  UNL1        0.0000
     88 H           7.7211    9.1537   22.0771 H       1  UNL1        0.0000
     89 H           7.8672    9.6521   20.3958 H       1  UNL1        0.0000
@<TRIPOS>BOND
     1    12    11    1
     2    11    74   ar
     3    11    37   ar
     4    75    74    1
     5    38    37    1
     6    74    25   ar
     7    37    60   ar
     8    72    69    1
     9    16    15    1
    10    32    31    1
    11    18    15    1
    12    70    69    1
    13    69    23    1
    14    69    71    1
    15    25    26    1
    16    25    48   ar
    17    15    63    1
    18    15    17    1
    19    31    23   ar
    20    31    63   ar
    21    60    48   ar
    22    60    33    1
    23    23    44   ar
    24    63     9   ar
    25    48     7    1
    26    44    45    1
    27    44    39   ar
    28     9    39   ar
    29     9    33    1
    30    21    19    1
    31    39    19    1
    32    33    36    1
    33    19    22    1
    34    19    20    1
    35     7    36    1
    36     7    24    1
    37    36     1    1
    38    28    27    1
    39    81    80    1
    40    24    27   ar
    41    24    13   ar
    42    80    82    2
    43    80    76    1
    44    83    82    1
    45    77    76    1
    46     2     1    1
    47    27    34   ar
    48    82     4    1
    49    76    84    2
    50     4    78    1
    51     4     1    1
    52    84    78    1
    53    84    85    1
    54    78    79    1
    55     1    13    1
    56     1     3    1
    57     1     5    1
    58    13     6   ar
    59    34    35    1
    60    34    61   ar
    61    56    55    1
    62     6    61   ar
    63     6    10    1
    64    61    62    1
    65    42    40    1
    66    58    55    1
    67     5    10    1
    68     5     8    1
    69    68    67    1
    70    55    59    1
    71    55    57    1
    72    67    59   ar
    73    67    54   ar
    74    10    14    1
    75    59    64   ar
    76    41    40    1
    77    40    54    1
    78    40    43    1
    79    54    49   ar
    80    89    86    1
    81    64     8    1
    82    64    51   ar
    83     8    73    1
    84    49    51   ar
    85    49    50    1
    86    51    86    1
    87    86    87    1
    88    86    88    1
    89    14    73   ar
    90    14    29   ar
    91    73    46   ar
    92    30    29    1
    93    29    52   ar
    94    46    47    1
    95    46    65   ar
    96    52    65   ar
    97    52    53    1
    98    65    66    1
