@<TRIPOS>MOLECULE
CSD_code = XALFOH | q = 1 | S = 0 | Stoichiometry = C53H65CoP3S2Si2(1+) | MND = 5
 126 130 0 0 0
SMALL
GASTEIGER

@<TRIPOS>ATOM
      1 CO          3.7990    2.8361    3.1439 Co.oh   1  UNL1        0.0000
      2 S           4.1664    2.5575   -0.2571 S.3     1  UNL1        0.0000
      3 S           5.7689    0.0882    2.2516 S.3     1  UNL1        0.0000
      4 P           1.6104    3.1110    3.2092 P.3     2  UNL2        0.0000
      5 P           3.8458    2.4084    5.3403 P.3     2  UNL2        0.0000
      6 P           3.8939    4.9912    3.5957 P.3     2  UNL2        0.0000
      7 SI          4.4750   -1.8127   -1.5399 Si      1  UNL1        0.0000
      8 SI          6.8825   -2.1785    6.0207 Si      1  UNL1        0.0000
      9 C           4.2909    2.3363    1.4266 C.2     1  UNL1        0.0000
     10 C           4.8157    1.5033    2.3228 C.2     1  UNL1        0.0000
     11 C           1.9722    4.5424    5.6845 C.3     2  UNL2        0.0000
     12 C           1.1416    5.2687    6.7549 C.3     2  UNL2        0.0000
     13 H           0.5460    4.5594    7.3261 H       2  UNL2        0.0000
     14 H           0.4660    5.9895    6.2987 H       2  UNL2        0.0000
     15 H           1.7879    5.8042    7.4473 H       2  UNL2        0.0000
     16 C           1.0090    3.6695    4.8598 C.3     2  UNL2        0.0000
     17 H           0.0596    4.1946    4.7182 H       2  UNL2        0.0000
     18 H           0.8073    2.7516    5.4253 H       2  UNL2        0.0000
     19 C           3.0008    3.6657    6.4092 C.3     2  UNL2        0.0000
     20 H           2.4977    3.1430    7.2266 H       2  UNL2        0.0000
     21 H           3.7784    4.2995    6.8441 H       2  UNL2        0.0000
     22 C           2.6716    5.6106    4.8345 C.3     2  UNL2        0.0000
     23 H           3.1749    6.3237    5.4941 H       2  UNL2        0.0000
     24 H           1.9232    6.1662    4.2627 H       2  UNL2        0.0000
     25 C           4.8194    0.9709   -0.9304 C.3     1  UNL1        0.0000
     26 H           5.0040    1.1961   -1.9792 H       1  UNL1        0.0000
     27 H           5.7620    0.7753   -0.4236 H       1  UNL1        0.0000
     28 C           3.8412   -0.1638   -0.7653 C.3     1  UNL1        0.0000
     29 H           2.8880    0.1129   -1.2188 H       1  UNL1        0.0000
     30 H           3.6567   -0.3233    0.2979 H       1  UNL1        0.0000
     31 C           4.7185   -1.5594   -3.4108 C.3     1  UNL1        0.0000
     32 H           5.5225   -0.8604   -3.6225 H       1  UNL1        0.0000
     33 H           3.8182   -1.1804   -3.8859 H       1  UNL1        0.0000
     34 H           4.9707   -2.4967   -3.8965 H       1  UNL1        0.0000
     35 C           3.1306   -3.1179   -1.1932 C.3     1  UNL1        0.0000
     36 H           3.4038   -4.0733   -1.6288 H       1  UNL1        0.0000
     37 H           2.1726   -2.8308   -1.6164 H       1  UNL1        0.0000
     38 H           2.9887   -3.2759   -0.1281 H       1  UNL1        0.0000
     39 C           6.1131   -2.2949   -0.6959 C.3     1  UNL1        0.0000
     40 H           6.0153   -2.3124    0.3856 H       1  UNL1        0.0000
     41 H           6.9109   -1.6001   -0.9414 H       1  UNL1        0.0000
     42 H           6.4352   -3.2820   -1.0119 H       1  UNL1        0.0000
     43 C           6.1999   -0.2855    4.0002 C.3     1  UNL1        0.0000
     44 H           7.1569    0.2009    4.1855 H       1  UNL1        0.0000
     45 H           5.4307    0.1758    4.6194 H       1  UNL1        0.0000
     46 C           6.2889   -1.7731    4.2328 C.3     1  UNL1        0.0000
     47 H           6.9856   -2.2086    3.5147 H       1  UNL1        0.0000
     48 H           5.3153   -2.2294    4.0468 H       1  UNL1        0.0000
     49 C           5.5679   -1.5500    7.2491 C.3     1  UNL1        0.0000
     50 H           5.4739   -0.4684    7.2089 H       1  UNL1        0.0000
     51 H           5.8302   -1.8161    8.2679 H       1  UNL1        0.0000
     52 H           4.5897   -1.9734    7.0421 H       1  UNL1        0.0000
     53 C           8.5305   -1.2748    6.3411 C.3     1  UNL1        0.0000
     54 H           8.3898   -0.1991    6.4062 H       1  UNL1        0.0000
     55 H           9.2557   -1.4692    5.5564 H       1  UNL1        0.0000
     56 H           8.9735   -1.5998    7.2773 H       1  UNL1        0.0000
     57 C           7.0936   -4.0642    6.1482 C.3     1  UNL1        0.0000
     58 H           7.4106   -4.3504    7.1457 H       1  UNL1        0.0000
     59 H           7.8412   -4.4313    5.4520 H       1  UNL1        0.0000
     60 H           6.1655   -4.5870    5.9386 H       1  UNL1        0.0000
     61 C           0.6144    1.6075    2.9187 C.ar    2  UNL2        0.0000
     62 C          -0.6608    1.4431    3.4488 C.ar    2  UNL2        0.0000
     63 H          -1.0987    2.2039    4.0772 H       2  UNL2        0.0000
     64 C          -1.3846    0.2997    3.1609 C.ar    2  UNL2        0.0000
     65 H          -2.3726    0.1755    3.5780 H       2  UNL2        0.0000
     66 C          -0.8539   -0.6792    2.3368 C.ar    2  UNL2        0.0000
     67 H          -1.4258   -1.5680    2.1179 H       2  UNL2        0.0000
     68 C           0.4069   -0.5111    1.7890 C.ar    2  UNL2        0.0000
     69 H           0.8229   -1.2644    1.1361 H       2  UNL2        0.0000
     70 C           1.1347    0.6269    2.0810 C.ar    2  UNL2        0.0000
     71 H           2.1240    0.7621    1.6630 H       2  UNL2        0.0000
     72 C           0.8181    4.2096    1.9889 C.ar    2  UNL2        0.0000
     73 C           0.2050    5.4251    2.2655 C.ar    2  UNL2        0.0000
     74 H           0.1014    5.7829    3.2792 H       2  UNL2        0.0000
     75 C          -0.3011    6.1979    1.2347 C.ar    2  UNL2        0.0000
     76 H          -0.7740    7.1420    1.4605 H       2  UNL2        0.0000
     77 C          -0.2050    5.7676   -0.0767 C.ar    2  UNL2        0.0000
     78 H          -0.5988    6.3777   -0.8749 H       2  UNL2        0.0000
     79 C           0.3911    4.5489   -0.3594 C.ar    2  UNL2        0.0000
     80 H           0.4613    4.2029   -1.3795 H       2  UNL2        0.0000
     81 C           0.9008    3.7779    0.6654 C.ar    2  UNL2        0.0000
     82 H           1.3747    2.8310    0.4478 H       2  UNL2        0.0000
     83 C           3.0289    0.8547    5.8685 C.ar    2  UNL2        0.0000
     84 C           2.6340    0.5598    7.1706 C.ar    2  UNL2        0.0000
     85 H           2.8125    1.2494    7.9824 H       2  UNL2        0.0000
     86 C           1.9999   -0.6366    7.4531 C.ar    2  UNL2        0.0000
     87 H           1.7020   -0.8537    8.4679 H       2  UNL2        0.0000
     88 C           1.7451   -1.5532    6.4459 C.ar    2  UNL2        0.0000
     89 H           1.2441   -2.4814    6.6743 H       2  UNL2        0.0000
     90 C           2.1352   -1.2711    5.1481 C.ar    2  UNL2        0.0000
     91 H           1.9371   -1.9752    4.3539 H       2  UNL2        0.0000
     92 C           2.7734   -0.0782    4.8671 C.ar    2  UNL2        0.0000
     93 H           3.0710    0.1463    3.8517 H       2  UNL2        0.0000
     94 C           5.4817    2.4001    6.1554 C.ar    2  UNL2        0.0000
     95 C           6.5938    2.6331    5.3537 C.ar    2  UNL2        0.0000
     96 H           6.4557    2.7806    4.2888 H       2  UNL2        0.0000
     97 C           7.8605    2.6878    5.9044 C.ar    2  UNL2        0.0000
     98 H           8.7147    2.8778    5.2717 H       2  UNL2        0.0000
     99 C           8.0278    2.5011    7.2662 C.ar    2  UNL2        0.0000
    100 H           9.0149    2.5390    7.7010 H       2  UNL2        0.0000
    101 C           6.9250    2.2677    8.0720 C.ar    2  UNL2        0.0000
    102 H           7.0543    2.1207    9.1337 H       2  UNL2        0.0000
    103 C           5.6559    2.2224    7.5243 C.ar    2  UNL2        0.0000
    104 H           4.8072    2.0482    8.1678 H       2  UNL2        0.0000
    105 C           5.5390    5.4924    4.2006 C.ar    2  UNL2        0.0000
    106 C           6.5430    5.4146    3.2347 C.ar    2  UNL2        0.0000
    107 H           6.2769    5.1142    2.2277 H       2  UNL2        0.0000
    108 C           7.8507    5.7155    3.5567 C.ar    2  UNL2        0.0000
    109 H           8.6200    5.6608    2.8010 H       2  UNL2        0.0000
    110 C           8.1740    6.0854    4.8538 C.ar    2  UNL2        0.0000
    111 H           9.1959    6.3179    5.1115 H       2  UNL2        0.0000
    112 C           7.1846    6.1565    5.8184 C.ar    2  UNL2        0.0000
    113 H           7.4343    6.4437    6.8289 H       2  UNL2        0.0000
    114 C           5.8707    5.8594    5.4976 C.ar    2  UNL2        0.0000
    115 H           5.1185    5.9251    6.2704 H       2  UNL2        0.0000
    116 C           3.6628    6.2451    2.2951 C.ar    2  UNL2        0.0000
    117 C           3.7118    7.5960    2.6331 C.ar    2  UNL2        0.0000
    118 H           3.9149    7.8918    3.6533 H       2  UNL2        0.0000
    119 C           3.5133    8.5553    1.6596 C.ar    2  UNL2        0.0000
    120 H           3.5511    9.6019    1.9222 H       2  UNL2        0.0000
    121 C           3.2697    8.1772    0.3475 C.ar    2  UNL2        0.0000
    122 H           3.1122    8.9315   -0.4082 H       2  UNL2        0.0000
    123 C           3.2403    6.8363    0.0071 C.ar    2  UNL2        0.0000
    124 H           3.0634    6.5374   -1.0147 H       2  UNL2        0.0000
    125 C           3.4409    5.8713    0.9783 C.ar    2  UNL2        0.0000
    126 H           3.4231    4.8239    0.7163 H       2  UNL2        0.0000
@<TRIPOS>BOND
     1    34    31    1
     2    33    31    1
     3    32    31    1
     4    31     7    1
     5    26    25    1
     6    36    35    1
     7    37    35    1
     8     7    35    1
     9     7    28    1
    10     7    39    1
    11    80    79    1
    12    29    28    1
    13    35    38    1
    14   124   123    1
    15    42    39    1
    16    41    39    1
    17    25    28    1
    18    25    27    1
    19    25     2    1
    20    78    77    1
    21    28    30    1
    22    39    40    1
    23   122   121    1
    24    79    77   ar
    25    79    81   ar
    26     2     9    1
    27    77    75   ar
    28   123   121   ar
    29   123   125   ar
    30   121   119   ar
    31    82    81    1
    32    81    72   ar
    33   126   125    1
    34   125   116   ar
    35    69    68    1
    36    75    76    1
    37    75    73   ar
    38     9    10    2
    39     9     1    1
    40   119   120    1
    41   119   117   ar
    42    71    70    1
    43    68    70   ar
    44    68    66   ar
    45    72    73   ar
    46    72     4    1
    47    70    61   ar
    48    67    66    1
    49   107   106    1
    50     3    10    1
    51     3    43    1
    52    73    74    1
    53   116   117   ar
    54   116     6    1
    55    66    64   ar
    56   117   118    1
    57   109   108    1
    58    61     4    1
    59    61    62   ar
    60    64    62   ar
    61    64    65    1
    62     4    16    1
    63   106   108   ar
    64   106   105   ar
    65    62    63    1
    66    47    46    1
    67   108   110   ar
    68     6   105    1
    69     6    22    1
    70    93    92    1
    71    43    44    1
    72    43    46    1
    73    43    45    1
    74    48    46    1
    75   105   114   ar
    76    46     8    1
    77    24    22    1
    78    96    95    1
    79    91    90    1
    80    17    16    1
    81    22    23    1
    82    22    11    1
    83   110   111    1
    84   110   112   ar
    85    16    18    1
    86    16    11    1
    87    92    90   ar
    88    92    83   ar
    89    90    88   ar
    90    98    97    1
    91     5    83    1
    92     5    94    1
    93     5    19    1
    94    95    97   ar
    95    95    94   ar
    96    59    57    1
    97   114   112   ar
    98   114   115    1
    99    55    53    1
   100    11    19    1
   101    11    12    1
   102   112   113    1
   103    83    84   ar
   104    97    99   ar
   105    60    57    1
   106     8    57    1
   107     8    53    1
   108     8    49    1
   109    57    58    1
   110    94   103   ar
   111    14    12    1
   112    53    54    1
   113    53    56    1
   114    19    21    1
   115    19    20    1
   116    88    89    1
   117    88    86   ar
   118    12    13    1
   119    12    15    1
   120    52    49    1
   121    84    86   ar
   122    84    85    1
   123    50    49    1
   124    49    51    1
   125    99   100    1
   126    99   101   ar
   127    86    87    1
   128   103   101   ar
   129   103   104    1
   130   101   102    1
