@<TRIPOS>MOLECULE
CSD_code = XANRAG | q = 0 | S = 0 | Stoichiometry = C27H31ClCoN3 | MND = 4
 63 67 0 0 0
SMALL
GASTEIGER

@<TRIPOS>ATOM
      1 CO         11.6635    4.4110   10.5267 Co.oh   1  UNL1        0.0000
      2 CL         11.9736    3.4465   12.3197 Cl      1  UNL1        0.0000
      3 N          11.3847    5.2015    9.0042 N.pl3   1  UNL1        0.0000
      4 C          10.3193    6.0309    8.8611 C.2     1  UNL1        0.0000
      5 C          10.0697    6.6651    7.6489 C.2     1  UNL1        0.0000
      6 H           9.2214    7.3224    7.5434 H       1  UNL1        0.0000
      7 C          10.9286    6.4371    6.5814 C.2     1  UNL1        0.0000
      8 H          10.7503    6.9209    5.6333 H       1  UNL1        0.0000
      9 C          12.0163    5.5867    6.7325 C.2     1  UNL1        0.0000
     10 H          12.6896    5.4013    5.9108 H       1  UNL1        0.0000
     11 C          12.2264    4.9745    7.9633 C.2     1  UNL1        0.0000
     12 C           9.5969    6.0977   10.1001 C.3     1  UNL1        0.0000
     13 N          10.1237    5.3560   11.0391 N.pl3   1  UNL1        0.0000
     14 C           8.3756    6.9443   10.2637 C.3     1  UNL1        0.0000
     15 H           7.6078    6.6337    9.5551 H       1  UNL1        0.0000
     16 H           8.6149    7.9877   10.0590 H       1  UNL1        0.0000
     17 H           7.9810    6.8619   11.2736 H       1  UNL1        0.0000
     18 C          13.2606    4.0676    8.3749 C.2     1  UNL1        0.0000
     19 N          13.1398    3.6864    9.6197 N.pl3   1  UNL1        0.0000
     20 C          14.3500    3.6306    7.4489 C.3     1  UNL1        0.0000
     21 H          14.9151    4.4958    7.1029 H       1  UNL1        0.0000
     22 H          13.9225    3.1410    6.5741 H       1  UNL1        0.0000
     23 H          15.0268    2.9409    7.9471 H       1  UNL1        0.0000
     24 C           9.5346    5.3204   12.3210 C.ar    1  UNL1        0.0000
     25 C           9.9701    6.2116   13.3030 C.ar    1  UNL1        0.0000
     26 C           9.3966    6.1483   14.5630 C.ar    1  UNL1        0.0000
     27 H           9.7352    6.8343   15.3267 H       1  UNL1        0.0000
     28 C           8.4122    5.2200   14.8651 C.ar    1  UNL1        0.0000
     29 C           8.0108    4.3299   13.8775 C.ar    1  UNL1        0.0000
     30 H           7.2592    3.5876   14.1072 H       1  UNL1        0.0000
     31 C           8.5592    4.3618   12.6072 C.ar    1  UNL1        0.0000
     32 C          11.0575    7.1902   12.9821 C.3     1  UNL1        0.0000
     33 H          11.8894    6.6635   12.5073 H       1  UNL1        0.0000
     34 H          11.4158    7.6795   13.8838 H       1  UNL1        0.0000
     35 H          10.7052    7.9530   12.2864 H       1  UNL1        0.0000
     36 C           7.7878    5.1672   16.2271 C.3     1  UNL1        0.0000
     37 H           6.7564    5.5192   16.1842 H       1  UNL1        0.0000
     38 H           8.3344    5.7908   16.9299 H       1  UNL1        0.0000
     39 H           7.7757    4.1452   16.6016 H       1  UNL1        0.0000
     40 C           8.1548    3.3815   11.5495 C.3     1  UNL1        0.0000
     41 H           7.6107    3.8763   10.7440 H       1  UNL1        0.0000
     42 H           7.5253    2.6005   11.9672 H       1  UNL1        0.0000
     43 H           9.0493    2.9260   11.1183 H       1  UNL1        0.0000
     44 C          14.0836    2.7984   10.1786 C.ar    1  UNL1        0.0000
     45 C          15.2019    3.3086   10.8397 C.ar    1  UNL1        0.0000
     46 C          16.1070    2.4219   11.4014 C.ar    1  UNL1        0.0000
     47 H          16.9719    2.8143   11.9175 H       1  UNL1        0.0000
     48 C          15.9200    1.0504   11.3247 C.ar    1  UNL1        0.0000
     49 C          14.7885    0.5674   10.6803 C.ar    1  UNL1        0.0000
     50 H          14.6213   -0.4995   10.6325 H       1  UNL1        0.0000
     51 C          13.8622    1.4206   10.1067 C.ar    1  UNL1        0.0000
     52 C          15.3837    4.7913   10.9480 C.3     1  UNL1        0.0000
     53 H          15.6191    5.2289    9.9768 H       1  UNL1        0.0000
     54 H          16.1837    5.0329   11.6425 H       1  UNL1        0.0000
     55 H          14.4544    5.2447   11.3024 H       1  UNL1        0.0000
     56 C          16.8986    0.0973   11.9424 C.3     1  UNL1        0.0000
     57 H          16.4365   -0.4214   12.7821 H       1  UNL1        0.0000
     58 H          17.7786    0.6227   12.3052 H       1  UNL1        0.0000
     59 H          17.2121   -0.6539   11.2185 H       1  UNL1        0.0000
     60 C          12.6235    0.9062    9.4402 C.3     1  UNL1        0.0000
     61 H          11.7528    1.4276    9.8451 H       1  UNL1        0.0000
     62 H          12.5082   -0.1609    9.6096 H       1  UNL1        0.0000
     63 H          12.6518    1.0892    8.3653 H       1  UNL1        0.0000
@<TRIPOS>BOND
     1     8     7    1
     2    10     9    1
     3    22    20    1
     4     7     9    2
     5     7     5    1
     6     9    11    1
     7    21    20    1
     8    20    23    1
     9    20    18    1
    10     6     5    1
    11     5     4    2
    12    11    18    2
    13    11     3    1
    14    63    60    1
    15    18    19    1
    16     4     3    1
    17     4    12    1
    18     3     1    1
    19    60    62    1
    20    60    61    1
    21    60    51    1
    22    15    14    1
    23    19    44    1
    24    19     1    1
    25    53    52    1
    26    16    14    1
    27    12    14    1
    28    12    13    1
    29    51    44   ar
    30    51    49   ar
    31    44    45   ar
    32    14    17    1
    33     1    13    1
    34     1     2    1
    35    50    49    1
    36    49    48   ar
    37    41    40    1
    38    45    52    1
    39    45    46   ar
    40    52    55    1
    41    52    54    1
    42    13    24    1
    43    43    40    1
    44    59    56    1
    45    48    46   ar
    46    48    56    1
    47    46    47    1
    48    40    42    1
    49    40    31    1
    50    56    58    1
    51    56    57    1
    52    35    32    1
    53    24    31   ar
    54    24    25   ar
    55    33    32    1
    56    31    29   ar
    57    32    25    1
    58    32    34    1
    59    25    26   ar
    60    29    30    1
    61    29    28   ar
    62    26    28   ar
    63    26    27    1
    64    28    36    1
    65    37    36    1
    66    36    39    1
    67    36    38    1
