@<TRIPOS>MOLECULE
CSD_code = XAXYOK | q = 0 | S = 0 | Stoichiometry = C6H17CoN12 | MND = 6
 36 37 0 0 0
SMALL
GASTEIGER

@<TRIPOS>ATOM
      1 CO          5.3148    1.8344   12.8051 Co.oh   1  UNL1        0.0000
      2 N           5.0773   -0.1140   12.2728 N.4     1  UNL1        0.0000
      3 H           4.4030   -0.4854   12.9450 H       1  UNL1        0.0000
      4 H           4.6202   -0.1622   11.3578 H       1  UNL1        0.0000
      5 N           7.3592    1.9256   12.1370 N.4     1  UNL1        0.0000
      6 H           7.1919    2.2013   11.1658 H       1  UNL1        0.0000
      7 N           5.3276    3.7731   13.3459 N.4     1  UNL1        0.0000
      8 H           4.8869    4.1983   12.5275 H       1  UNL1        0.0000
      9 H           4.6425    3.8386   14.1008 H       1  UNL1        0.0000
     10 N           4.8455    2.4306   11.0626 N.2     1  UNL1        0.0000
     11 N           3.5412    1.8872   13.3634 N.2     1  UNL1        0.0000
     12 N           5.9018    1.2175   14.4687 N.2     1  UNL1        0.0000
     13 N           4.6971    1.8213   10.0749 N.2     1  UNL1        0.0000
     14 N           4.5750    1.2992    9.0713 N.2     1  UNL1        0.0000
     15 N           2.6238    1.2314   13.0464 N.2     1  UNL1        0.0000
     16 N           1.6661    0.6574   12.8402 N.2     1  UNL1        0.0000
     17 N           6.3270    1.8161   15.3770 N.2     1  UNL1        0.0000
     18 N           6.7902    2.3002   16.2972 N.2     1  UNL1        0.0000
     19 C           6.2266   -1.0256   12.2575 C.3     1  UNL1        0.0000
     20 H           5.9202   -2.0044   11.8680 H       1  UNL1        0.0000
     21 H           6.5715   -1.1518   13.2861 H       1  UNL1        0.0000
     22 C           7.3611   -0.4699   11.4043 C.3     1  UNL1        0.0000
     23 H           6.9672   -0.1295   10.4432 H       1  UNL1        0.0000
     24 H           8.0736   -1.2718   11.2062 H       1  UNL1        0.0000
     25 C           8.1050    0.6630   12.1030 C.3     1  UNL1        0.0000
     26 H           9.0666    0.8222   11.5916 H       1  UNL1        0.0000
     27 H           8.3178    0.3720   13.1353 H       1  UNL1        0.0000
     28 C           8.2196    2.9597   12.7255 C.3     1  UNL1        0.0000
     29 H           9.1838    2.9709   12.1947 H       1  UNL1        0.0000
     30 H           8.4171    2.6908   13.7669 H       1  UNL1        0.0000
     31 C           7.6161    4.3590   12.6695 C.3     1  UNL1        0.0000
     32 H           8.4095    5.0819   12.8633 H       1  UNL1        0.0000
     33 H           7.2180    4.5523   11.6704 H       1  UNL1        0.0000
     34 C           6.5142    4.5525   13.7045 C.3     1  UNL1        0.0000
     35 H           6.8720    4.2302   14.6865 H       1  UNL1        0.0000
     36 H           6.2581    5.6175   13.7711 H       1  UNL1        0.0000
@<TRIPOS>BOND
     1    14    13    2
     2    13    10    2
     3    23    22    1
     4    10     1    1
     5     6     5    1
     6    24    22    1
     7     4     2    1
     8    22    25    1
     9    22    19    1
    10    26    25    1
    11    33    31    1
    12    20    19    1
    13    25     5    1
    14    25    27    1
    15     5    28    1
    16     5     1    1
    17    29    28    1
    18    19     2    1
    19    19    21    1
    20     2     1    1
    21     2     3    1
    22     8     7    1
    23    31    28    1
    24    31    32    1
    25    31    34    1
    26    28    30    1
    27     1     7    1
    28     1    11    1
    29     1    12    1
    30    16    15    2
    31    15    11    2
    32     7    34    1
    33     7     9    1
    34    34    36    1
    35    34    35    1
    36    12    17    2
    37    17    18    2
