@<TRIPOS>MOLECULE
CSD_code = XERYIF | q = 0 | S = 0 | Stoichiometry = C20H15CoN6O4 | MND = 6
 46 52 0 0 0
SMALL
GASTEIGER

@<TRIPOS>ATOM
      1 CO          2.2287   -0.3618   12.7128 Co.oh   1  UNL1        0.0000
      2 O           1.9840   -2.3979   13.0363 O.3     1  UNL1        0.0000
      3 O           1.3641   -1.4941   11.1711 O.3     1  UNL1        0.0000
      4 N           4.1921    1.1498   10.5697 N.pl3   1  UNL1        0.5000
      5 N          -0.1145    1.8878   12.3055 N.2     1  UNL1        0.5000
      6 N           0.4995   -0.0646   13.5392 N.pl3   1  UNL1        0.5000
      7 N           4.0284   -0.7047   12.0700 N.pl3   1  UNL1        0.5000
      8 N           2.1239    1.2368   11.7681 N.ar    1  UNL1        0.0000
      9 N           2.9575    0.3088   14.1443 N.pl3   1  UNL1        0.0000
     10 C          -1.6667    0.9471   13.7615 C.2     1  UNL1        0.0000
     11 H          -2.3263    1.7273   13.4202 H       1  UNL1        0.0000
     12 C          -0.3818    0.9002   13.1856 C.2     1  UNL1        0.0000
     13 C           1.0181    2.0246   11.7005 C.ar    1  UNL1        0.0000
     14 C           3.0524    1.6733   10.8762 C.ar    1  UNL1        0.0000
     15 C           1.2706    3.1103   10.7512 C.ar    1  UNL1        0.0000
     16 C           2.5507    2.8877   10.2301 C.ar    1  UNL1        0.0000
     17 O           3.1439   -0.5426   14.9877 O.2     1  UNL1        0.0000
     18 C           4.6686   -1.7476   12.6154 C.3     1  UNL1        0.0000
     19 H           4.1441   -2.2854   13.3933 H       1  UNL1        0.0000
     20 C           1.4684   -2.5116   11.8940 C.3     1  UNL1        0.0000
     21 C           5.9319   -2.1468   12.2402 C.2     1  UNL1        0.0000
     22 H           6.3861   -2.9970   12.7220 H       1  UNL1        0.0000
     23 C           2.3321    4.8215    8.8830 C.ar    1  UNL1        0.0000
     24 H           2.7304    5.5074    8.1499 H       1  UNL1        0.0000
     25 C           3.0984    3.7355    9.2892 C.ar    1  UNL1        0.0000
     26 H           4.0838    3.5545    8.8914 H       1  UNL1        0.0000
     27 C          -2.0292    0.0392   14.7223 C.2     1  UNL1        0.0000
     28 H          -3.0114    0.0639   15.1695 H       1  UNL1        0.0000
     29 C           4.6819    0.0276   11.1374 C.2     1  UNL1        0.0000
     30 C           5.9702   -0.3427   10.7038 C.2     1  UNL1        0.0000
     31 H           6.4271    0.2754    9.9491 H       1  UNL1        0.0000
     32 C           0.5089    4.1868   10.3449 C.ar    1  UNL1        0.0000
     33 H          -0.4763    4.3494   10.7510 H       1  UNL1        0.0000
     34 C           0.1477   -0.9161   14.5118 C.2     1  UNL1        0.0000
     35 H           0.8928   -1.6377   14.8178 H       1  UNL1        0.0000
     36 C           1.0631    5.0430    9.4009 C.ar    1  UNL1        0.0000
     37 H           0.4964    5.8979    9.0623 H       1  UNL1        0.0000
     38 C           6.5981   -1.4337   11.2465 C.2     1  UNL1        0.0000
     39 H           7.5861   -1.7253   10.9238 H       1  UNL1        0.0000
     40 C           0.9761   -3.8537   11.4166 C.3     1  UNL1        0.0000
     41 H          -0.0180   -4.0246   11.8268 H       1  UNL1        0.0000
     42 H           1.6361   -4.6393   11.7740 H       1  UNL1        0.0000
     43 H           0.9177   -3.8609   10.3323 H       1  UNL1        0.0000
     44 C          -1.0868   -0.9058   15.1216 C.2     1  UNL1        0.0000
     45 H          -1.3036   -1.6228   15.8962 H       1  UNL1        0.0000
     46 O           3.2329    1.4826   14.2450 O.2     1  UNL1        0.0000
@<TRIPOS>BOND
     1    24    23    1
     2    23    25   ar
     3    23    36   ar
     4    26    25    1
     5    37    36    1
     6    25    16   ar
     7    36    32   ar
     8    31    30    1
     9    16    15   ar
    10    16    14   ar
    11    43    40    1
    12    32    33    1
    13    32    15   ar
    14     4    14    1
    15     4    29    1
    16    30    29    2
    17    30    38    1
    18    15    13   ar
    19    14     8   ar
    20    39    38    1
    21    29     7    1
    22     3    20    1
    23     3     1    1
    24    38    21    2
    25    40    42    1
    26    40    41    1
    27    40    20    1
    28    13     8   ar
    29    13     5    1
    30     8     1    1
    31    20     2    1
    32     7    18    1
    33     7     1    1
    34    21    18    1
    35    21    22    1
    36     5    12    2
    37    18    19    1
    38     1     2    1
    39     1     6    1
    40     1     9    1
    41    12     6    1
    42    12    10    1
    43    11    10    1
    44     6    34    1
    45    10    27    2
    46     9    46    2
    47     9    17    2
    48    34    35    1
    49    34    44    2
    50    27    44    1
    51    27    28    1
    52    44    45    1
