@<TRIPOS>MOLECULE
CSD_code = XESZOM | q = 0 | S = 0 | Stoichiometry = C17H41CoNO3P3 | MND = 6
 66 62 0 0 0
SMALL
GASTEIGER

@<TRIPOS>ATOM
      1 CO          1.3223    9.1708    4.0084 Co.oh   1  UNL1        0.0000
      2 P           2.5817    7.7662    2.8998 P.3     2  UNL2        0.0000
      3 P           2.1424   11.1270    2.9348 P.3     3  UNL3        0.0000
      4 P           2.5675    9.1357    5.8386 P.3     4  UNL4        0.0000
      5 O           2.9971    6.4077    3.6843 O.3     2  UNL2        0.0000
      6 O           4.0722    8.3078    2.5735 O.3     2  UNL2        0.0000
      7 O           2.1723    6.9857    1.5281 O.3     2  UNL2        0.0000
      8 N          -0.9699    9.4684    0.8603 N.2     1  UNL1        0.0000
      9 C          -0.2681    9.8948    5.0530 C.3     1  UNL1        0.0000
     10 H          -0.3577    9.9214    6.1348 H       1  UNL1        0.0000
     11 H          -0.5396   10.8346    4.5878 H       1  UNL1        0.0000
     12 C          -0.5503    8.6818    4.4071 C.3     1  UNL1        0.0000
     13 H          -0.7333    7.7770    4.9825 H       1  UNL1        0.0000
     14 C          -0.4524    8.6122    2.9950 C.3     1  UNL1        0.0000
     15 H          -0.4959    7.6224    2.5438 H       1  UNL1        0.0000
     16 C          -0.9056    9.6571    2.1196 C.2     1  UNL1        0.0000
     17 H          -1.2459   10.5832    2.5994 H       1  UNL1        0.0000
     18 C          -1.5850   10.3950   -0.0605 C.3     1  UNL1        0.0000
     19 C          -3.0286    9.9078   -0.2717 C.3     1  UNL1        0.0000
     20 H          -3.0221    8.8709   -0.5977 H       1  UNL1        0.0000
     21 H          -3.5287   10.5145   -1.0233 H       1  UNL1        0.0000
     22 H          -3.5851    9.9707    0.6614 H       1  UNL1        0.0000
     23 C          -0.8211   10.2705   -1.3870 C.3     1  UNL1        0.0000
     24 H           0.1799   10.6855   -1.2945 H       1  UNL1        0.0000
     25 H          -1.3453   10.8001   -2.1790 H       1  UNL1        0.0000
     26 H          -0.7325    9.2218   -1.6567 H       1  UNL1        0.0000
     27 C          -1.6128   11.8682    0.3757 C.3     1  UNL1        0.0000
     28 H          -2.2655   12.0125    1.2343 H       1  UNL1        0.0000
     29 H          -1.9903   12.4790   -0.4410 H       1  UNL1        0.0000
     30 H          -0.6120   12.2108    0.6310 H       1  UNL1        0.0000
     31 C           1.9547    5.5764    4.1500 C.3     2  UNL2        0.0000
     32 H           1.2006    6.1674    4.6764 H       2  UNL2        0.0000
     33 H           2.4022    4.8506    4.8303 H       2  UNL2        0.0000
     34 H           1.4788    5.0544    3.3180 H       2  UNL2        0.0000
     35 C           5.0646    7.4506    2.0306 C.3     2  UNL2        0.0000
     36 H           5.6250    6.9687    2.8332 H       2  UNL2        0.0000
     37 H           5.7368    8.0699    1.4348 H       2  UNL2        0.0000
     38 H           4.6146    6.6817    1.4011 H       2  UNL2        0.0000
     39 C           1.6397    7.6149    0.3746 C.3     2  UNL2        0.0000
     40 H           0.7689    8.2320    0.6099 H       2  UNL2        0.0000
     41 H           1.3418    6.8079   -0.2967 H       2  UNL2        0.0000
     42 H           2.4007    8.2251   -0.1170 H       2  UNL2        0.0000
     43 C           2.2335   11.0976    1.0991 C.3     3  UNL3        0.0000
     44 H           2.4801   12.0808    0.6982 H       3  UNL3        0.0000
     45 H           1.2839   10.7569    0.6969 H       3  UNL3        0.0000
     46 H           3.0036   10.3832    0.8167 H       3  UNL3        0.0000
     47 C           3.8868   11.6454    3.2363 C.3     3  UNL3        0.0000
     48 H           4.1566   12.4826    2.5932 H       3  UNL3        0.0000
     49 H           4.5313   10.7962    3.0235 H       3  UNL3        0.0000
     50 H           4.0170   11.9340    4.2764 H       3  UNL3        0.0000
     51 C           1.3315   12.7645    3.1854 C.3     3  UNL3        0.0000
     52 H           1.3295   12.9977    4.2486 H       3  UNL3        0.0000
     53 H           0.3007   12.7125    2.8436 H       3  UNL3        0.0000
     54 H           1.8531   13.5509    2.6414 H       3  UNL3        0.0000
     55 C           4.3657    8.7598    5.7802 C.3     4  UNL4        0.0000
     56 H           4.7975    8.7766    6.7808 H       4  UNL4        0.0000
     57 H           4.8655    9.4908    5.1499 H       4  UNL4        0.0000
     58 H           4.4992    7.7763    5.3362 H       4  UNL4        0.0000
     59 C           2.6145   10.6658    6.8612 C.3     4  UNL4        0.0000
     60 H           1.6083   10.9015    7.1981 H       4  UNL4        0.0000
     61 H           2.9736   11.4927    6.2536 H       4  UNL4        0.0000
     62 H           3.2670   10.5349    7.7236 H       4  UNL4        0.0000
     63 C           2.0800    7.9375    7.1494 C.3     4  UNL4        0.0000
     64 H           2.6559    8.1093    8.0583 H       4  UNL4        0.0000
     65 H           2.2608    6.9261    6.7926 H       4  UNL4        0.0000
     66 H           1.0197    8.0493    7.3660 H       4  UNL4        0.0000
@<TRIPOS>BOND
     1    25    23    1
     2    26    23    1
     3    23    24    1
     4    23    18    1
     5    21    19    1
     6    20    19    1
     7    29    27    1
     8    41    39    1
     9    19    18    1
    10    19    22    1
    11    42    39    1
    12    18    27    1
    13    18     8    1
    14    39    40    1
    15    39     7    1
    16    27    30    1
    17    27    28    1
    18    45    43    1
    19    44    43    1
    20    46    43    1
    21     8    16    2
    22    43     3    1
    23    38    35    1
    24    37    35    1
    25     7     2    1
    26    35     6    1
    27    35    36    1
    28    16    17    1
    29    16    14    1
    30    15    14    1
    31     6     2    1
    32    48    47    1
    33    54    51    1
    34    53    51    1
    35     2     5    1
    36     3    51    1
    37     3    47    1
    38    14    12    1
    39    49    47    1
    40    51    52    1
    41    47    50    1
    42    34    31    1
    43     5    31    1
    44     1    12    1
    45    31    32    1
    46    31    33    1
    47    12    13    1
    48    12     9    1
    49    11     9    1
    50     9    10    1
    51    57    55    1
    52    58    55    1
    53    55     4    1
    54    55    56    1
    55     4    59    1
    56     4    63    1
    57    61    59    1
    58    65    63    1
    59    59    60    1
    60    59    62    1
    61    63    66    1
    62    63    64    1
