@<TRIPOS>MOLECULE
CSD_code = XEZMIZ | q = 1 | S = 0 | Stoichiometry = C26H20CoN6O4(1+) | MND = 6
 57 64 0 0 0
SMALL
GASTEIGER

@<TRIPOS>ATOM
      1 CO          1.0088    8.5728    5.4227 Co.oh   1  UNL1        0.0000
      2 O           0.3207    7.4117    6.7279 O.2     1  UNL1        0.0000
      3 O           0.4697    3.3713    5.5816 O.3     1  UNL1        0.0000
      4 H           0.7745    4.1473    5.0666 H       1  UNL1        0.0000
      5 O           2.7144    8.4757    6.2010 O.2     1  UNL1        0.0000
      6 O           3.4136   11.5087    9.0246 O.3     1  UNL1        0.0000
      7 H           2.5963   11.3561    8.5058 H       1  UNL1        0.0000
      8 N           1.7769    9.4010    3.8811 N.pl3   1  UNL1        0.0000
      9 N           1.2260    7.0408    4.4953 N.pl3   1  UNL1        0.0000
     10 N           0.8618    5.9299    5.0960 N.2     1  UNL1        0.0000
     11 N          -0.7740    9.0010    4.8840 N.pl3   1  UNL1        0.0000
     12 N           0.8558   10.0285    6.4771 N.pl3   1  UNL1        0.0000
     13 N           1.8879   10.3177    7.2380 N.2     1  UNL1        0.0000
     14 C           2.0574   10.6775    3.6385 C.3     1  UNL1        0.0000
     15 H           1.7627   11.3967    4.3905 H       1  UNL1        0.0000
     16 C           2.6996   11.0961    2.4870 C.2     1  UNL1        0.0000
     17 H           2.9080   12.1428    2.3408 H       1  UNL1        0.0000
     18 C           3.0700   10.1482    1.5396 C.2     1  UNL1        0.0000
     19 H           3.5756   10.4463    0.6347 H       1  UNL1        0.0000
     20 C           2.7827    8.8198    1.7798 C.2     1  UNL1        0.0000
     21 H           3.0541    8.0493    1.0764 H       1  UNL1        0.0000
     22 C           2.1351    8.4640    2.9651 C.2     1  UNL1        0.0000
     23 C           1.8094    7.1208    3.3409 C.3     1  UNL1        0.0000
     24 H           2.0529    6.2553    2.7406 H       1  UNL1        0.0000
     25 C           0.3827    6.2026    6.3220 C.2     1  UNL1        0.0000
     26 C          -0.0629    5.1183    7.1702 C.ar    1  UNL1        0.0000
     27 C          -0.5698    5.4303    8.4442 C.ar    1  UNL1        0.0000
     28 H          -0.6038    6.4698    8.7324 H       1  UNL1        0.0000
     29 C          -1.0049    4.4446    9.2929 C.ar    1  UNL1        0.0000
     30 H          -1.3916    4.6962   10.2674 H       1  UNL1        0.0000
     31 C          -0.9418    3.1111    8.8879 C.ar    1  UNL1        0.0000
     32 H          -1.2817    2.3323    9.5528 H       1  UNL1        0.0000
     33 C          -0.4472    2.7786    7.6479 C.ar    1  UNL1        0.0000
     34 H          -0.3893    1.7524    7.3223 H       1  UNL1        0.0000
     35 C           0.0024    3.7654    6.7645 C.ar    1  UNL1        0.0000
     36 C          -1.5884    8.3850    4.0330 C.3     1  UNL1        0.0000
     37 H          -1.1891    7.5324    3.5008 H       1  UNL1        0.0000
     38 C          -2.8934    8.7915    3.8198 C.2     1  UNL1        0.0000
     39 H          -3.5138    8.2547    3.1217 H       1  UNL1        0.0000
     40 C          -3.3806    9.8885    4.5215 C.2     1  UNL1        0.0000
     41 H          -4.3954   10.2245    4.3775 H       1  UNL1        0.0000
     42 C          -2.5441   10.5366    5.4075 C.2     1  UNL1        0.0000
     43 H          -2.8787   11.3888    5.9766 H       1  UNL1        0.0000
     44 C          -1.2377   10.0727    5.5782 C.2     1  UNL1        0.0000
     45 C          -0.2856   10.6421    6.4842 C.3     1  UNL1        0.0000
     46 H          -0.5025   11.4793    7.1327 H       1  UNL1        0.0000
     47 C           2.8706    9.4211    7.0450 C.2     1  UNL1        0.0000
     48 C           4.1025    9.5411    7.7945 C.ar    1  UNL1        0.0000
     49 C           5.1167    8.5932    7.5707 C.ar    1  UNL1        0.0000
     50 H           4.9280    7.8144    6.8478 H       1  UNL1        0.0000
     51 C           6.3061    8.6564    8.2508 C.ar    1  UNL1        0.0000
     52 H           7.0762    7.9236    8.0708 H       1  UNL1        0.0000
     53 C           6.5133    9.6757    9.1805 C.ar    1  UNL1        0.0000
     54 H           7.4471    9.7288    9.7185 H       1  UNL1        0.0000
     55 C           5.5359   10.6136    9.4208 C.ar    1  UNL1        0.0000
     56 H           5.6804   11.4050   10.1386 H       1  UNL1        0.0000
     57 C           4.3143   10.5700    8.7408 C.ar    1  UNL1        0.0000
@<TRIPOS>BOND
     1    19    18    1
     2    21    20    1
     3    18    20    1
     4    18    16    2
     5    20    22    2
     6    17    16    1
     7    16    14    1
     8    24    23    1
     9    22    23    1
    10    22     8    1
    11    39    38    1
    12    23     9    1
    13    37    36    1
    14    14     8    1
    15    14    15    1
    16    38    36    1
    17    38    40    2
    18     8     1    1
    19    36    11    1
    20    41    40    1
    21     9    10    1
    22     9     1    1
    23    40    42    1
    24    11     1    1
    25    11    44    1
    26     4     3    1
    27    10    25    2
    28    42    44    2
    29    42    43    1
    30     1     5    1
    31     1    12    1
    32     1     2    1
    33    44    45    1
    34     3    35    1
    35     5    47    1
    36    25     2    1
    37    25    26    1
    38    12    45    1
    39    12    13    1
    40    45    46    1
    41    35    26   ar
    42    35    33   ar
    43    50    49    1
    44    47    13    2
    45    47    48    1
    46    26    27   ar
    47    34    33    1
    48    49    48   ar
    49    49    51   ar
    50    33    31   ar
    51    48    57   ar
    52    52    51    1
    53    51    53   ar
    54    27    28    1
    55    27    29   ar
    56     7     6    1
    57    57     6    1
    58    57    55   ar
    59    31    29   ar
    60    31    32    1
    61    53    55   ar
    62    53    54    1
    63    29    30    1
    64    55    56    1
