@<TRIPOS>MOLECULE
CSD_code = XONCAF | q = 0 | S = 0 | Stoichiometry = C26H47BCoNS3 | MND = 4
 79 81 0 0 0
SMALL
GASTEIGER

@<TRIPOS>ATOM
      1 CO          7.3810    4.1442    4.2888 Co.oh   1  UNL1        0.0000
      2 B           5.5402    5.8471    1.8695 B       1  UNL1        0.0000
      3 N           7.2147    2.4318    6.6666 N.3     1  UNL1        0.0000
      4 S           8.2192    5.1558    2.5203 S.3     1  UNL1        0.0000
      5 S           5.9066    6.1190    4.7867 S.3     1  UNL1        0.0000
      6 S           5.6351    3.0761    2.9239 S.3     1  UNL1        0.0000
      7 C           3.4912    7.1377    0.7544 C.ar    1  UNL1        0.0000
      8 H           3.0061    7.1753    1.7196 H       1  UNL1        0.0000
      9 C           2.8265    7.6834   -0.3306 C.ar    1  UNL1        0.0000
     10 H           1.8550    8.1404   -0.1932 H       1  UNL1        0.0000
     11 C           3.3974    7.6441   -1.5895 C.ar    1  UNL1        0.0000
     12 H           2.8833    8.0707   -2.4399 H       1  UNL1        0.0000
     13 C           4.6335    7.0419   -1.7454 C.ar    1  UNL1        0.0000
     14 H           5.0895    6.9908   -2.7258 H       1  UNL1        0.0000
     15 C           5.2843    6.5031   -0.6510 C.ar    1  UNL1        0.0000
     16 H           6.2435    6.0271   -0.8091 H       1  UNL1        0.0000
     17 C           4.7457    6.5434    0.6361 C.ar    1  UNL1        0.0000
     18 C           7.0974    6.4233    1.8990 C.3     1  UNL1        0.0000
     19 H           7.1759    7.2934    2.5483 H       1  UNL1        0.0000
     20 H           7.4689    6.7000    0.9119 H       1  UNL1        0.0000
     21 C           9.6718    5.9569    3.3600 C.3     1  UNL1        0.0000
     22 C          10.5273    6.6436    2.3051 C.3     1  UNL1        0.0000
     23 H           9.9833    7.4707    1.8527 H       1  UNL1        0.0000
     24 H          10.8038    5.9425    1.5195 H       1  UNL1        0.0000
     25 H          11.4386    7.0376    2.7533 H       1  UNL1        0.0000
     26 C           9.2339    6.9297    4.4427 C.3     1  UNL1        0.0000
     27 H          10.1093    7.3541    4.9336 H       1  UNL1        0.0000
     28 H           8.6282    6.4165    5.1917 H       1  UNL1        0.0000
     29 H           8.6478    7.7483    4.0315 H       1  UNL1        0.0000
     30 C          10.3903    4.7666    3.9928 C.3     1  UNL1        0.0000
     31 H          10.7626    4.0875    3.2279 H       1  UNL1        0.0000
     32 H           9.6828    4.2154    4.6340 H       1  UNL1        0.0000
     33 H          11.2264    5.0965    4.6070 H       1  UNL1        0.0000
     34 C           4.8200    6.1766    3.3166 C.3     1  UNL1        0.0000
     35 H           4.0044    5.4823    3.5049 H       1  UNL1        0.0000
     36 H           4.4298    7.1947    3.3295 H       1  UNL1        0.0000
     37 C           4.7443    5.8243    6.2100 C.3     1  UNL1        0.0000
     38 C           5.6333    5.8282    7.4493 C.3     1  UNL1        0.0000
     39 H           6.1418    6.7846    7.5476 H       1  UNL1        0.0000
     40 H           6.3856    5.0464    7.3691 H       1  UNL1        0.0000
     41 H           5.0368    5.6580    8.3441 H       1  UNL1        0.0000
     42 C           3.7512    6.9785    6.2673 C.3     1  UNL1        0.0000
     43 H           3.1169    6.9909    5.3844 H       1  UNL1        0.0000
     44 H           4.2754    7.9298    6.3305 H       1  UNL1        0.0000
     45 H           3.1128    6.8754    7.1437 H       1  UNL1        0.0000
     46 C           4.0308    4.4891    6.0629 C.3     1  UNL1        0.0000
     47 H           3.4816    4.2590    6.9750 H       1  UNL1        0.0000
     48 H           4.7512    3.6970    5.8685 H       1  UNL1        0.0000
     49 H           3.3206    4.5088    5.2402 H       1  UNL1        0.0000
     50 C           5.5085    4.2247    1.5116 C.3     1  UNL1        0.0000
     51 H           6.3191    3.9775    0.8275 H       1  UNL1        0.0000
     52 H           4.5668    3.9589    1.0287 H       1  UNL1        0.0000
     53 C           6.3490    1.5006    2.2373 C.3     1  UNL1        0.0000
     54 C           5.5603    1.0777    1.0063 C.3     1  UNL1        0.0000
     55 H           5.9151    0.1099    0.6545 H       1  UNL1        0.0000
     56 H           5.6751    1.7959    0.1983 H       1  UNL1        0.0000
     57 H           4.5023    0.9922    1.2446 H       1  UNL1        0.0000
     58 C           6.1834    0.4802    3.3585 C.3     1  UNL1        0.0000
     59 H           6.5966   -0.4813    3.0592 H       1  UNL1        0.0000
     60 H           5.1315    0.3501    3.6007 H       1  UNL1        0.0000
     61 H           6.7031    0.8258    4.2497 H       1  UNL1        0.0000
     62 C           7.8222    1.7031    1.9204 C.3     1  UNL1        0.0000
     63 H           8.3449    2.0566    2.8130 H       1  UNL1        0.0000
     64 H           7.9572    2.4380    1.1297 H       1  UNL1        0.0000
     65 H           8.2736    0.7657    1.5971 H       1  UNL1        0.0000
     66 C           7.1689    3.1435    5.7347 C.3     1  UNL1        0.0000
     67 C           7.1034    1.6138    7.8063 C.3     1  UNL1        0.0000
     68 C           5.6190    1.4955    8.1694 C.3     1  UNL1        0.0000
     69 H           5.2093    2.4748    8.4042 H       1  UNL1        0.0000
     70 H           5.5015    0.8474    9.0336 H       1  UNL1        0.0000
     71 H           5.0588    1.0781    7.3360 H       1  UNL1        0.0000
     72 C           7.8885    2.2703    8.9471 C.3     1  UNL1        0.0000
     73 H           8.9357    2.3779    8.6735 H       1  UNL1        0.0000
     74 H           7.8209    1.6585    9.8425 H       1  UNL1        0.0000
     75 H           7.4854    3.2568    9.1651 H       1  UNL1        0.0000
     76 C           7.6889    0.2385    7.4683 C.3     1  UNL1        0.0000
     77 H           7.1318   -0.2196    6.6542 H       1  UNL1        0.0000
     78 H           7.6353   -0.4104    8.3382 H       1  UNL1        0.0000
     79 H           8.7292    0.3342    7.1655 H       1  UNL1        0.0000
@<TRIPOS>BOND
     1    14    13    1
     2    12    11    1
     3    13    11   ar
     4    13    15   ar
     5    11     9   ar
     6    16    15    1
     7    15    17   ar
     8     9    10    1
     9     9     7   ar
    10    56    54    1
    11    17     7   ar
    12    17     2    1
    13    55    54    1
    14     7     8    1
    15    51    50    1
    16    20    18    1
    17    54    57    1
    18    54    53    1
    19    52    50    1
    20    64    62    1
    21    50     2    1
    22    50     6    1
    23    24    22    1
    24    65    62    1
    25    23    22    1
    26     2    18    1
    27     2    34    1
    28    18     4    1
    29    18    19    1
    30    62    53    1
    31    62    63    1
    32    53     6    1
    33    53    58    1
    34    22    25    1
    35    22    21    1
    36     4    21    1
    37     4     1    1
    38     6     1    1
    39    59    58    1
    40    31    30    1
    41    34    36    1
    42    34    35    1
    43    34     5    1
    44    58    60    1
    45    58    61    1
    46    21    30    1
    47    21    26    1
    48    30    33    1
    49    30    32    1
    50    29    26    1
    51     1     5    1
    52     1    66    1
    53    26    27    1
    54    26    28    1
    55     5    37    1
    56    49    46    1
    57    43    42    1
    58    66     3    1
    59    48    46    1
    60    46    37    1
    61    46    47    1
    62    37    42    1
    63    37    38    1
    64    42    44    1
    65    42    45    1
    66    77    76    1
    67     3    67    1
    68    79    76    1
    69    71    68    1
    70    40    38    1
    71    38    39    1
    72    38    41    1
    73    76    67    1
    74    76    78    1
    75    67    68    1
    76    67    72    1
    77    68    69    1
    78    68    70    1
    79    73    72    1
    80    72    75    1
    81    72    74    1
