@<TRIPOS>MOLECULE
CSD_code = XONCOT | q = 0 | S = 0 | Stoichiometry = C27H53BCoPS3 | MND = 4
 86 88 0 0 0
SMALL
GASTEIGER

@<TRIPOS>ATOM
      1 CO          3.2407    7.5252    4.9269 Co.oh   1  UNL1        0.0000
      2 B           3.8857   10.3782    2.9821 B       1  UNL1        0.0000
      3 P           4.0078    5.8143    6.1872 P.3     1  UNL1        0.0000
      4 S           4.9376    7.6614    2.7894 S.3     1  UNL1        0.0000
      5 S           1.6732    8.7837    3.9417 S.3     1  UNL1        0.0000
      6 S           4.1783    9.4114    5.8132 S.3     1  UNL1        0.0000
      7 C           5.0508   12.3376    1.6102 C.ar    1  UNL1        0.0000
      8 H           5.9300   11.7168    1.5111 H       1  UNL1        0.0000
      9 C           5.0812   13.6086    1.0627 C.ar    1  UNL1        0.0000
     10 H           5.9677   13.9524    0.5454 H       1  UNL1        0.0000
     11 C           3.9838   14.4424    1.1772 C.ar    1  UNL1        0.0000
     12 H           4.0018   15.4361    0.7507 H       1  UNL1        0.0000
     13 C           2.8643   13.9881    1.8520 C.ar    1  UNL1        0.0000
     14 H           2.0003   14.6316    1.9592 H       1  UNL1        0.0000
     15 C           2.8501   12.7149    2.3911 C.ar    1  UNL1        0.0000
     16 H           1.9623   12.3927    2.9210 H       1  UNL1        0.0000
     17 C           3.9341   11.8433    2.2805 C.ar    1  UNL1        0.0000
     18 C           5.1570    9.4544    2.5183 C.3     1  UNL1        0.0000
     19 H           6.0573    9.7377    3.0593 H       1  UNL1        0.0000
     20 H           5.3418    9.5514    1.4473 H       1  UNL1        0.0000
     21 C           6.6845    7.0278    2.8180 C.3     1  UNL1        0.0000
     22 C           7.3895    7.4266    1.5279 C.3     1  UNL1        0.0000
     23 H           8.3887    6.9929    1.5035 H       1  UNL1        0.0000
     24 H           7.4865    8.5065    1.4494 H       1  UNL1        0.0000
     25 H           6.8335    7.0659    0.6647 H       1  UNL1        0.0000
     26 C           7.4093    7.5729    4.0411 C.3     1  UNL1        0.0000
     27 H           8.3353    7.0240    4.2091 H       1  UNL1        0.0000
     28 H           6.7739    7.4813    4.9184 H       1  UNL1        0.0000
     29 H           7.6611    8.6233    3.9138 H       1  UNL1        0.0000
     30 C           6.5665    5.5099    2.8937 C.3     1  UNL1        0.0000
     31 H           7.5543    5.0513    2.8973 H       1  UNL1        0.0000
     32 H           6.0097    5.1311    2.0394 H       1  UNL1        0.0000
     33 H           6.0418    5.2222    3.8007 H       1  UNL1        0.0000
     34 C           2.4771    9.6120    2.5557 C.3     1  UNL1        0.0000
     35 H           2.6792    8.8548    1.8007 H       1  UNL1        0.0000
     36 H           1.7345   10.3030    2.1572 H       1  UNL1        0.0000
     37 C           0.7310    7.3603    3.2035 C.3     1  UNL1        0.0000
     38 C          -0.0466    7.7977    1.9726 C.3     1  UNL1        0.0000
     39 H          -0.6309    6.9612    1.5905 H       1  UNL1        0.0000
     40 H           0.6184    8.1352    1.1814 H       1  UNL1        0.0000
     41 H          -0.7290    8.6085    2.2208 H       1  UNL1        0.0000
     42 C           1.7511    6.2741    2.8976 C.3     1  UNL1        0.0000
     43 H           1.2668    5.3155    2.7133 H       1  UNL1        0.0000
     44 H           2.4280    6.1679    3.7654 H       1  UNL1        0.0000
     45 H           2.3578    6.5322    2.0323 H       1  UNL1        0.0000
     46 C          -0.2222    6.9050    4.3041 C.3     1  UNL1        0.0000
     47 H          -0.8010    6.0434    3.9748 H       1  UNL1        0.0000
     48 H          -0.9106    7.7045    4.5691 H       1  UNL1        0.0000
     49 H           0.3416    6.6283    5.1933 H       1  UNL1        0.0000
     50 C           3.9308   10.7387    4.5931 C.3     1  UNL1        0.0000
     51 H           3.0003   11.2331    4.8631 H       1  UNL1        0.0000
     52 H           4.7510   11.4315    4.7879 H       1  UNL1        0.0000
     53 C           3.3089   10.0861    7.3267 C.3     1  UNL1        0.0000
     54 C           3.8276   11.4899    7.6086 C.3     1  UNL1        0.0000
     55 H           3.4326   11.8391    8.5616 H       1  UNL1        0.0000
     56 H           3.5220   12.1932    6.8388 H       1  UNL1        0.0000
     57 H           4.9140   11.4896    7.6664 H       1  UNL1        0.0000
     58 C           1.8035   10.0782    7.1173 C.3     1  UNL1        0.0000
     59 H           1.3011   10.4442    8.0116 H       1  UNL1        0.0000
     60 H           1.4595    9.0669    6.9089 H       1  UNL1        0.0000
     61 H           1.5137   10.7111    6.2824 H       1  UNL1        0.0000
     62 C           3.6865    9.1528    8.4683 C.3     1  UNL1        0.0000
     63 H           3.1359    9.4162    9.3696 H       1  UNL1        0.0000
     64 H           4.7507    9.2183    8.6789 H       1  UNL1        0.0000
     65 H           3.4461    8.1296    8.1942 H       1  UNL1        0.0000
     66 C           3.7244    4.2293    5.2441 C.3     1  UNL1        0.0000
     67 H           2.6408    4.0741    5.2525 H       1  UNL1        0.0000
     68 H           4.0114    4.4150    4.2066 H       1  UNL1        0.0000
     69 C           4.4219    2.9673    5.7356 C.3     1  UNL1        0.0000
     70 H           4.0846    2.1167    5.1455 H       1  UNL1        0.0000
     71 H           4.1952    2.7581    6.7786 H       1  UNL1        0.0000
     72 H           5.5001    3.0440    5.6234 H       1  UNL1        0.0000
     73 C           5.7301    5.5599    6.8305 C.3     1  UNL1        0.0000
     74 H           5.7523    4.6529    7.4393 H       1  UNL1        0.0000
     75 H           6.3811    5.4098    5.9679 H       1  UNL1        0.0000
     76 C           6.2343    6.7468    7.6416 C.3     1  UNL1        0.0000
     77 H           7.3001    6.6436    7.8370 H       1  UNL1        0.0000
     78 H           5.7217    6.8119    8.5980 H       1  UNL1        0.0000
     79 H           6.0668    7.6755    7.1002 H       1  UNL1        0.0000
     80 C           3.0877    5.3932    7.7488 C.3     1  UNL1        0.0000
     81 H           3.2604    4.3413    7.9878 H       1  UNL1        0.0000
     82 H           3.5107    5.9897    8.5587 H       1  UNL1        0.0000
     83 C           1.5968    5.6715    7.6348 C.3     1  UNL1        0.0000
     84 H           1.0989    5.5122    8.5894 H       1  UNL1        0.0000
     85 H           1.1343    5.0164    6.8990 H       1  UNL1        0.0000
     86 H           1.4337    6.7047    7.3302 H       1  UNL1        0.0000
@<TRIPOS>BOND
     1    10     9    1
     2    25    22    1
     3    12    11    1
     4     9    11   ar
     5     9     7   ar
     6    11    13   ar
     7    40    38    1
     8    20    18    1
     9    24    22    1
    10    23    22    1
    11     8     7    1
    12    22    21    1
    13    39    38    1
    14     7    17   ar
    15    35    34    1
    16    13    14    1
    17    13    15   ar
    18    38    41    1
    19    38    37    1
    20    45    42    1
    21    32    30    1
    22    36    34    1
    23    17    15   ar
    24    17     2    1
    25    15    16    1
    26    18     4    1
    27    18     2    1
    28    18    19    1
    29    34     2    1
    30    34     5    1
    31    43    42    1
    32     4    21    1
    33     4     1    1
    34    21    30    1
    35    21    26    1
    36    30    31    1
    37    30    33    1
    38    42    37    1
    39    42    44    1
    40     2    50    1
    41    37     5    1
    42    37    46    1
    43    29    26    1
    44     5     1    1
    45    47    46    1
    46    26    27    1
    47    26    28    1
    48    68    66    1
    49    46    48    1
    50    46    49    1
    51    50    52    1
    52    50    51    1
    53    50     6    1
    54     1     6    1
    55     1     3    1
    56    70    69    1
    57    66    67    1
    58    66    69    1
    59    66     3    1
    60    72    69    1
    61    69    71    1
    62     6    53    1
    63    75    73    1
    64     3    73    1
    65     3    80    1
    66    61    58    1
    67    73    74    1
    68    73    76    1
    69    56    54    1
    70    85    83    1
    71    60    58    1
    72    79    76    1
    73    58    53    1
    74    58    59    1
    75    53    54    1
    76    53    62    1
    77    86    83    1
    78    54    57    1
    79    54    55    1
    80    83    80    1
    81    83    84    1
    82    76    77    1
    83    76    78    1
    84    80    81    1
    85    80    82    1
    86    65    62    1
    87    62    64    1
    88    62    63    1
