@<TRIPOS>MOLECULE
CSD_code = XOZMEE | q = 1 | S = 0 | Stoichiometry = C21H30CoN6O2(1+) | MND = 6
 60 64 0 0 0
SMALL
GASTEIGER

@<TRIPOS>ATOM
      1 CO          5.5870   -0.7655    9.2565 Co.oh   1  UNL1        0.0000
      2 C           7.2326   -1.9257    7.0094 C.3     1  UNL1        0.0000
      3 H           6.5633   -2.7681    7.1130 H       1  UNL1        0.0000
      4 C           8.2537   -1.9581    6.0791 C.2     1  UNL1        0.0000
      5 H           8.3942   -2.8300    5.4619 H       1  UNL1        0.0000
      6 C           9.0791   -0.8498    5.9575 C.2     1  UNL1        0.0000
      7 H           9.8884   -0.8374    5.2445 H       1  UNL1        0.0000
      8 C           8.8333    0.2465    6.7632 C.2     1  UNL1        0.0000
      9 H           9.4421    1.1342    6.6956 H       1  UNL1        0.0000
     10 C           7.7858    0.1984    7.6755 C.2     1  UNL1        0.0000
     11 C           7.5201    1.3602    8.5899 C.3     1  UNL1        0.0000
     12 H           8.3057    1.3623    9.3559 H       1  UNL1        0.0000
     13 H           7.6290    2.2944    8.0238 H       1  UNL1        0.0000
     14 C           4.3275    2.8720    9.5460 C.3     1  UNL1        0.0000
     15 H           3.8037    2.1996   10.2179 H       1  UNL1        0.0000
     16 H           3.5900    3.4719    9.0207 H       1  UNL1        0.0000
     17 H           4.9556    3.5437   10.1274 H       1  UNL1        0.0000
     18 C           5.1765    2.0854    8.5442 C.3     1  UNL1        0.0000
     19 H           5.6601    2.8105    7.8725 H       1  UNL1        0.0000
     20 C           4.3104    1.1904    7.7144 C.3     1  UNL1        0.0000
     21 C           3.4136    1.7620    6.6751 C.3     1  UNL1        0.0000
     22 H           3.6017    1.2696    5.7209 H       1  UNL1        0.0000
     23 H           3.5477    2.8333    6.5700 H       1  UNL1        0.0000
     24 H           2.3765    1.5433    6.9304 H       1  UNL1        0.0000
     25 C          10.9958    0.3421    9.6871 C.ar    1  UNL1        0.0000
     26 H          11.5262    1.2844    9.6965 H       1  UNL1        0.0000
     27 C          11.4883   -0.7604    9.0070 C.ar    1  UNL1        0.0000
     28 H          12.4243   -0.7071    8.4760 H       1  UNL1        0.0000
     29 C          10.7369   -1.9243    9.0257 C.ar    1  UNL1        0.0000
     30 H          11.0714   -2.8049    8.4984 H       1  UNL1        0.0000
     31 C           9.5480   -1.9477    9.7379 C.ar    1  UNL1        0.0000
     32 H           8.9437   -2.8409    9.7572 H       1  UNL1        0.0000
     33 C           9.1506   -0.7963   10.4061 C.ar    1  UNL1        0.0000
     34 C           7.8817   -0.7207   11.2336 C.3     1  UNL1        0.0000
     35 H           8.0936   -1.1261   12.2292 H       1  UNL1        0.0000
     36 H           7.6260    0.3313   11.3678 H       1  UNL1        0.0000
     37 C           7.2536   -3.4225   12.0143 C.3     1  UNL1        0.0000
     38 H           8.3369   -3.3456   11.9609 H       1  UNL1        0.0000
     39 H           6.9799   -4.4711   11.9859 H       1  UNL1        0.0000
     40 H           6.9346   -3.0161   12.9749 H       1  UNL1        0.0000
     41 C           6.5735   -2.6723   10.9142 C.2     1  UNL1        0.0000
     42 C           5.5892   -3.3058   10.0996 C.2     1  UNL1        0.0000
     43 C           5.1954   -4.7463   10.1794 C.3     1  UNL1        0.0000
     44 H           4.4187   -4.9370    9.4424 H       1  UNL1        0.0000
     45 H           4.8049   -4.9835   11.1673 H       1  UNL1        0.0000
     46 H           6.0405   -5.4011    9.9718 H       1  UNL1        0.0000
     47 C           4.2582   -0.4995   10.6921 C.3     1  UNL1        0.0000
     48 H           4.1019   -1.3853   11.3046 H       1  UNL1        0.0000
     49 H           3.2880   -0.2155   10.2884 H       1  UNL1        0.0000
     50 H           4.6041    0.2913   11.3574 H       1  UNL1        0.0000
     51 N           7.0093   -0.8784    7.8023 N.pl3   1  UNL1        0.0000
     52 N           6.2022    1.2743    9.2305 N.4     1  UNL1        0.0000
     53 H           6.2875    1.6491   10.1728 H       1  UNL1        0.0000
     54 N           4.3572   -0.0661    7.9486 N.3     1  UNL1        0.0000
     55 N           5.0695   -2.5031    9.2026 N.3     1  UNL1        0.0000
     56 N           6.7938   -1.4273   10.6041 N.pl3   1  UNL1        0.0000
     57 N           9.8550    0.3283   10.3557 N.ar    1  UNL1        0.0000
     58 O           3.5376   -0.8212    7.1774 O.3     1  UNL1        0.0000
     59 H           3.6677   -1.7771    7.4975 H       1  UNL1        0.0000
     60 O           4.2817   -2.9307    8.3116 O.3     1  UNL1        0.0000
@<TRIPOS>BOND
     1     7     6    1
     2     5     4    1
     3    22    21    1
     4     6     4    2
     5     6     8    1
     6     4     2    1
     7    23    21    1
     8    21    24    1
     9    21    20    1
    10     9     8    1
    11     8    10    2
    12     2     3    1
    13     2    51    1
    14    58    59    1
    15    58    54    1
    16    10    51    1
    17    10    11    1
    18    20    54    1
    19    20    18    1
    20    51     1    1
    21    19    18    1
    22    54     1    1
    23    13    11    1
    24    60    55    1
    25    28    27    1
    26    30    29    1
    27    18    52    1
    28    18    14    1
    29    11    52    1
    30    11    12    1
    31    27    29   ar
    32    27    25   ar
    33    16    14    1
    34    29    31   ar
    35    55     1    1
    36    55    42    1
    37    52     1    1
    38    52    53    1
    39     1    56    1
    40     1    47    1
    41    44    43    1
    42    14    17    1
    43    14    15    1
    44    25    26    1
    45    25    57   ar
    46    31    32    1
    47    31    33   ar
    48    46    43    1
    49    42    43    1
    50    42    41    2
    51    43    45    1
    52    49    47    1
    53    57    33   ar
    54    33    34    1
    55    56    41    1
    56    56    34    1
    57    47    48    1
    58    47    50    1
    59    41    37    1
    60    34    36    1
    61    34    35    1
    62    38    37    1
    63    39    37    1
    64    37    40    1
