@<TRIPOS>MOLECULE
CSD_code = XUPJIC | q = 0 | S = 0 | Stoichiometry = C33H43CoO2P4 | MND = 5
 83 88 0 0 0
SMALL
GASTEIGER

@<TRIPOS>ATOM
      1 CO          0.3708    9.4331    3.7329 Co.oh   1  UNL1        0.0000
      2 O           0.3547    6.4164    4.2126 O.3     1  UNL1        0.0000
      3 O          -1.5517    8.9929    1.3769 O.3     1  UNL1        0.0000
      4 P           0.0043    9.3924    1.5558 P.3     1  UNL1        0.0000
      5 P           1.0743    7.6919    4.8846 P.3     1  UNL1        0.0000
      6 P           2.2522   10.5633    3.7031 P.3     1  UNL1        0.0000
      7 P          -0.8943   11.0719    4.7681 P.3     1  UNL1        0.0000
      8 C          -1.2096    8.1911    3.6538 C.3     1  UNL1        0.0000
      9 H          -1.7330    8.1629    4.6228 H       1  UNL1        0.0000
     10 C          -2.2074    8.6022    2.5805 C.3     1  UNL1        0.0000
     11 H          -2.8757    7.7710    2.3147 H       1  UNL1        0.0000
     12 H          -2.8259    9.4395    2.9227 H       1  UNL1        0.0000
     13 C           0.8114    8.0988    0.5282 C.ar    1  UNL1        0.0000
     14 C           1.8375    7.3304    1.0559 C.ar    1  UNL1        0.0000
     15 H           2.1548    7.5173    2.0740 H       1  UNL1        0.0000
     16 C           2.4278    6.3357    0.2964 C.ar    1  UNL1        0.0000
     17 H           3.2317    5.7428    0.7099 H       1  UNL1        0.0000
     18 C           1.9829    6.0996   -0.9936 C.ar    1  UNL1        0.0000
     19 H           2.4401    5.3228   -1.5898 H       1  UNL1        0.0000
     20 C           0.9453    6.8545   -1.5196 C.ar    1  UNL1        0.0000
     21 H           0.5944    6.6620   -2.5237 H       1  UNL1        0.0000
     22 C           0.3613    7.8537   -0.7635 C.ar    1  UNL1        0.0000
     23 H          -0.4491    8.4480   -1.1625 H       1  UNL1        0.0000
     24 C           0.0868   10.7299    0.3154 C.ar    1  UNL1        0.0000
     25 C           1.3040   11.0169   -0.2963 C.ar    1  UNL1        0.0000
     26 H           2.1617   10.3904   -0.0876 H       1  UNL1        0.0000
     27 C           1.4152   12.0753   -1.1775 C.ar    1  UNL1        0.0000
     28 H           2.3631   12.2850   -1.6530 H       1  UNL1        0.0000
     29 C           0.3110   12.8666   -1.4537 C.ar    1  UNL1        0.0000
     30 H           0.3970   13.6937   -2.1434 H       1  UNL1        0.0000
     31 C          -0.9028   12.5898   -0.8471 C.ar    1  UNL1        0.0000
     32 H          -1.7669   13.2017   -1.0655 H       1  UNL1        0.0000
     33 C          -1.0126   11.5318    0.0371 C.ar    1  UNL1        0.0000
     34 H          -1.9607   11.3076    0.5027 H       1  UNL1        0.0000
     35 C          -0.7436    6.7649    3.3780 C.3     1  UNL1        0.0000
     36 H          -1.5405    6.0354    3.5807 H       1  UNL1        0.0000
     37 H          -0.4367    6.6514    2.3303 H       1  UNL1        0.0000
     38 C           2.7114    6.9340    5.1647 C.ar    1  UNL1        0.0000
     39 C           3.5002    7.3523    6.2319 C.ar    1  UNL1        0.0000
     40 H           3.0962    8.0562    6.9475 H       1  UNL1        0.0000
     41 C           4.7774    6.8510    6.3978 C.ar    1  UNL1        0.0000
     42 H           5.3805    7.1771    7.2334 H       1  UNL1        0.0000
     43 C           5.2833    5.9267    5.4974 C.ar    1  UNL1        0.0000
     44 H           6.2819    5.5354    5.6272 H       1  UNL1        0.0000
     45 C           4.5012    5.5000    4.4369 C.ar    1  UNL1        0.0000
     46 H           4.8897    4.7707    3.7400 H       1  UNL1        0.0000
     47 C           3.2244    6.0042    4.2674 C.ar    1  UNL1        0.0000
     48 H           2.6082    5.6646    3.4482 H       1  UNL1        0.0000
     49 C           0.4808    7.6023    6.6190 C.ar    1  UNL1        0.0000
     50 C           0.4145    8.7613    7.3778 C.ar    1  UNL1        0.0000
     51 H           0.7131    9.6940    6.9181 H       1  UNL1        0.0000
     52 C          -0.0362    8.7176    8.6846 C.ar    1  UNL1        0.0000
     53 H          -0.0859    9.6229    9.2745 H       1  UNL1        0.0000
     54 C          -0.4317    7.5098    9.2361 C.ar    1  UNL1        0.0000
     55 H          -0.7907    7.4727   10.2547 H       1  UNL1        0.0000
     56 C          -0.3711    6.3495    8.4802 C.ar    1  UNL1        0.0000
     57 H          -0.6818    5.4088    8.9128 H       1  UNL1        0.0000
     58 C           0.0881    6.3928    7.1765 C.ar    1  UNL1        0.0000
     59 H           0.1416    5.4940    6.5784 H       1  UNL1        0.0000
     60 C          -0.2444   12.3621    5.9230 C.3     1  UNL1        0.0000
     61 H           0.5999   12.8768    5.4702 H       1  UNL1        0.0000
     62 H           0.0831   11.8960    6.8499 H       1  UNL1        0.0000
     63 H          -1.0242   13.0883    6.1498 H       1  UNL1        0.0000
     64 C          -2.3792   10.6198    5.7618 C.3     1  UNL1        0.0000
     65 H          -2.8802   11.5164    6.1254 H       1  UNL1        0.0000
     66 H          -2.0653   10.0091    6.6069 H       1  UNL1        0.0000
     67 H          -3.0720   10.0409    5.1560 H       1  UNL1        0.0000
     68 C          -1.6848   12.2162    3.5613 C.3     1  UNL1        0.0000
     69 H          -2.3114   11.6415    2.8845 H       1  UNL1        0.0000
     70 H          -0.9093   12.7015    2.9712 H       1  UNL1        0.0000
     71 H          -2.2891   12.9675    4.0695 H       1  UNL1        0.0000
     72 C           2.3027   12.2242    2.9130 C.3     1  UNL1        0.0000
     73 H           1.6401   12.9040    3.4446 H       1  UNL1        0.0000
     74 H           1.9537   12.1388    1.8852 H       1  UNL1        0.0000
     75 H           3.3167   12.6231    2.9235 H       1  UNL1        0.0000
     76 C           3.6691    9.7879    2.8265 C.3     1  UNL1        0.0000
     77 H           4.5464   10.4326    2.8805 H       1  UNL1        0.0000
     78 H           3.4052    9.6176    1.7850 H       1  UNL1        0.0000
     79 H           3.8953    8.8301    3.2943 H       1  UNL1        0.0000
     80 C           3.1228   10.9402    5.2793 C.3     1  UNL1        0.0000
     81 H           3.4096    9.9980    5.7422 H       1  UNL1        0.0000
     82 H           2.4658   11.4786    5.9571 H       1  UNL1        0.0000
     83 H           4.0144   11.5368    5.0872 H       1  UNL1        0.0000
@<TRIPOS>BOND
     1    21    20    1
     2    30    29    1
     3    28    27    1
     4    19    18    1
     5    20    18   ar
     6    20    22   ar
     7    29    27   ar
     8    29    31   ar
     9    27    25   ar
    10    23    22    1
    11    32    31    1
    12    18    16   ar
    13    31    33   ar
    14    22    13   ar
    15    25    26    1
    16    25    24   ar
    17    33    24   ar
    18    33    34    1
    19    16    17    1
    20    16    14   ar
    21    24     4    1
    22    13    14   ar
    23    13     4    1
    24    14    15    1
    25     3     4    1
    26     3    10    1
    27     4     1    1
    28    78    76    1
    29    74    72    1
    30    11    10    1
    31    37    35    1
    32    10    12    1
    33    10     8    1
    34    76    77    1
    35    76    79    1
    36    76     6    1
    37    69    68    1
    38    72    75    1
    39    72    73    1
    40    72     6    1
    41    70    68    1
    42    35    36    1
    43    35     8    1
    44    35     2    1
    45    48    47    1
    46    68    71    1
    47    68     7    1
    48     8     1    1
    49     8     9    1
    50     6     1    1
    51     6    80    1
    52     1     7    1
    53     1     5    1
    54    46    45    1
    55     2     5    1
    56    47    45   ar
    57    47    38   ar
    58    45    43   ar
    59     7    64    1
    60     7    60    1
    61     5    38    1
    62     5    49    1
    63    83    80    1
    64    67    64    1
    65    38    39   ar
    66    80    81    1
    67    80    82    1
    68    61    60    1
    69    43    44    1
    70    43    41   ar
    71    64    65    1
    72    64    66    1
    73    60    63    1
    74    60    62    1
    75    39    41   ar
    76    39    40    1
    77    41    42    1
    78    59    58    1
    79    49    58   ar
    80    49    50   ar
    81    51    50    1
    82    58    56   ar
    83    50    52   ar
    84    56    57    1
    85    56    54   ar
    86    52    54   ar
    87    52    53    1
    88    54    55    1
