@<TRIPOS>MOLECULE
CSD_code = XURQUW | q = 1 | S = 0 | Stoichiometry = C20H18CoN8O2S2(1+) | MND = 6
 51 58 0 0 0
SMALL
GASTEIGER

@<TRIPOS>ATOM
      1 CO          4.6445    7.7365   12.3496 Co.oh   1  UNL1        0.0000
      2 S           3.0371    9.3218   12.1797 S.3     1  UNL1        0.0000
      3 O           6.0023    6.2975   12.7801 O.3     1  UNL1        0.0000
      4 N           1.7322   10.0915   14.3376 N.pl3   1  UNL1        0.0000
      5 N           3.2945    8.4615   14.6986 N.2     1  UNL1        0.0000
      6 N           4.2127    7.7056   14.1586 N.pl3   1  UNL1        0.0000
      7 N           6.4673    5.1663   14.7701 N.ar    1  UNL1        0.0000
      8 C           2.6742    9.2792   13.8668 C.2     1  UNL1        0.0000
      9 C           4.8863    6.8028   14.8169 C.ar    1  UNL1        0.0000
     10 C           4.9814    6.2718   16.1487 C.ar    1  UNL1        0.0000
     11 C           4.3430    6.5545   17.3450 C.ar    1  UNL1        0.0000
     12 C           4.7038    5.8190   18.4645 C.ar    1  UNL1        0.0000
     13 C           5.6739    4.8303   18.3904 C.ar    1  UNL1        0.0000
     14 C           6.3248    4.5355   17.1951 C.ar    1  UNL1        0.0000
     15 C           5.9701    5.2632   16.0820 C.ar    1  UNL1        0.0000
     16 C           5.8453    6.0670   14.0022 C.ar    1  UNL1        0.0000
     17 C           7.4877    4.2488   14.3364 C.3     1  UNL1        0.0000
     18 H           1.5132   10.0879   15.3201 H       1  UNL1        0.0000
     19 H           1.2541   10.7235   13.7182 H       1  UNL1        0.0000
     20 H           3.5908    7.3253   17.3920 H       1  UNL1        0.0000
     21 H           4.2225    6.0183   19.4090 H       1  UNL1        0.0000
     22 H           5.9336    4.2744   19.2776 H       1  UNL1        0.0000
     23 H           7.0774    3.7647   17.1534 H       1  UNL1        0.0000
     24 H           8.4102    4.4211   14.8926 H       1  UNL1        0.0000
     25 H           7.6673    4.4166   13.2760 H       1  UNL1        0.0000
     26 H           7.1619    3.2192   14.4927 H       1  UNL1        0.0000
     27 S           6.2518    9.3219   12.5195 S.3     1  UNL1        0.0000
     28 C           6.6148    9.2792   10.8324 C.2     1  UNL1        0.0000
     29 N           7.5567   10.0915   10.3616 N.pl3   1  UNL1        0.0000
     30 H           7.7757   10.0880    9.3791 H       1  UNL1        0.0000
     31 H           8.0348   10.7236   10.9810 H       1  UNL1        0.0000
     32 N           5.9945    8.4616   10.0006 N.2     1  UNL1        0.0000
     33 N           5.0763    7.7056   10.5406 N.pl3   1  UNL1        0.0000
     34 O           3.2867    6.2976   11.9191 O.3     1  UNL1        0.0000
     35 C           3.4437    6.0671   10.6970 C.ar    1  UNL1        0.0000
     36 N           2.8217    5.1664    9.9292 N.ar    1  UNL1        0.0000
     37 C           3.3189    5.2632    8.6173 C.ar    1  UNL1        0.0000
     38 C           4.3076    6.2718    8.5505 C.ar    1  UNL1        0.0000
     39 C           4.4027    6.8028    9.8823 C.ar    1  UNL1        0.0000
     40 C           4.9459    6.5545    7.3541 C.ar    1  UNL1        0.0000
     41 C           4.5850    5.8190    6.2346 C.ar    1  UNL1        0.0000
     42 C           3.6149    4.8303    6.3089 C.ar    1  UNL1        0.0000
     43 C           2.9641    4.5355    7.5041 C.ar    1  UNL1        0.0000
     44 H           2.2113    3.7648    7.5458 H       1  UNL1        0.0000
     45 H           3.3551    4.2745    5.4216 H       1  UNL1        0.0000
     46 H           5.0664    6.0182    5.2902 H       1  UNL1        0.0000
     47 H           5.6983    7.3251    7.3072 H       1  UNL1        0.0000
     48 C           1.8013    4.2488   10.3629 C.3     1  UNL1        0.0000
     49 H           0.8789    4.4209    9.8065 H       1  UNL1        0.0000
     50 H           1.6216    4.4168   11.4232 H       1  UNL1        0.0000
     51 H           2.1272    3.2192   10.2069 H       1  UNL1        0.0000
@<TRIPOS>BOND
     1    46    41    1
     2    45    42    1
     3    41    42   ar
     4    41    40   ar
     5    42    43   ar
     6    47    40    1
     7    40    38   ar
     8    43    44    1
     9    43    37   ar
    10    38    37   ar
    11    38    39   ar
    12    37    36   ar
    13    30    29    1
    14    49    48    1
    15    39    33    1
    16    39    35   ar
    17    36    48    1
    18    36    35   ar
    19    32    33    1
    20    32    28    2
    21    51    48    1
    22    29    28    1
    23    29    31    1
    24    48    50    1
    25    33     1    1
    26    35    34    1
    27    28    27    1
    28    34     1    1
    29     2     1    1
    30     2     8    1
    31     1    27    1
    32     1     3    1
    33     1     6    1
    34     3    16    1
    35    25    17    1
    36    19     4    1
    37     8     4    1
    38     8     5    2
    39    16     7   ar
    40    16     9   ar
    41     6     5    1
    42     6     9    1
    43    17    26    1
    44    17     7    1
    45    17    24    1
    46     4    18    1
    47     7    15   ar
    48     9    10   ar
    49    15    10   ar
    50    15    14   ar
    51    10    11   ar
    52    23    14    1
    53    14    13   ar
    54    11    20    1
    55    11    12   ar
    56    13    12   ar
    57    13    22    1
    58    12    21    1
