@<TRIPOS>MOLECULE
CSD_code = XUSCIY | q = 1 | S = 0 | Stoichiometry = C55H59CoP3S2Si(1+) | MND = 5
 121 126 0 0 0
SMALL
GASTEIGER

@<TRIPOS>ATOM
      1 CO          6.2071    5.3904    4.8772 Co.oh   1  UNL1        0.0000
      2 C           6.5171    4.7748    6.6040 C.3     1  UNL1        0.0000
      3 C           5.3518    4.3208    6.1564 C.3     1  UNL1        0.0000
      4 P           7.6790    4.7898    3.3643 P.3     2  UNL2        0.0000
      5 P           7.1526    7.4337    4.6963 P.3     2  UNL2        0.0000
      6 P           4.7815    5.7655    3.1814 P.3     2  UNL2        0.0000
      7 S           7.4201    4.8404    8.0473 S.3     1  UNL1        0.0000
      8 S           4.2096    3.1699    6.6816 S.3     1  UNL1        0.0000
      9 SI          3.6747    4.8684   10.6612 Si      1  UNL1        0.0000
     10 C           6.9627    7.0861    1.8618 C.3     2  UNL2        0.0000
     11 C           7.5051    5.6543    1.7480 C.3     2  UNL2        0.0000
     12 H           8.4829    5.6742    1.2580 H       2  UNL2        0.0000
     13 H           6.8180    5.0638    1.1334 H       2  UNL2        0.0000
     14 C           7.6907    7.8433    2.9825 C.3     2  UNL2        0.0000
     15 H           7.5951    8.9216    2.8276 H       2  UNL2        0.0000
     16 H           8.7516    7.5813    2.9217 H       2  UNL2        0.0000
     17 C           5.4418    7.0841    2.0662 C.3     2  UNL2        0.0000
     18 H           4.9391    6.9834    1.0996 H       2  UNL2        0.0000
     19 H           5.1384    8.0444    2.4945 H       2  UNL2        0.0000
     20 C           7.2599    7.8109    0.5405 C.3     2  UNL2        0.0000
     21 H           6.7924    8.7934    0.5284 H       2  UNL2        0.0000
     22 H           6.8778    7.2419   -0.3047 H       2  UNL2        0.0000
     23 H           8.3317    7.9423    0.4051 H       2  UNL2        0.0000
     24 C           7.8257    3.0319    2.9095 C.ar    2  UNL2        0.0000
     25 C           7.8746    2.1527    3.9895 C.ar    2  UNL2        0.0000
     26 H           7.7795    2.5509    4.9934 H       2  UNL2        0.0000
     27 C           8.0332    0.7972    3.7810 C.ar    2  UNL2        0.0000
     28 H           8.0681    0.1206    4.6214 H       2  UNL2        0.0000
     29 C           8.1453    0.3090    2.4880 C.ar    2  UNL2        0.0000
     30 H           8.2660   -0.7501    2.3190 H       2  UNL2        0.0000
     31 C           8.1045    1.1803    1.4128 C.ar    2  UNL2        0.0000
     32 H           8.1976    0.8005    0.4065 H       2  UNL2        0.0000
     33 C           7.9469    2.5408    1.6162 C.ar    2  UNL2        0.0000
     34 H           7.9173    3.2008    0.7625 H       2  UNL2        0.0000
     35 C           9.4250    5.0465    3.8365 C.ar    2  UNL2        0.0000
     36 C           9.7474    5.2752    5.1677 C.ar    2  UNL2        0.0000
     37 H           8.9633    5.3313    5.9087 H       2  UNL2        0.0000
     38 C          11.0687    5.4219    5.5525 C.ar    2  UNL2        0.0000
     39 H          11.3043    5.6063    6.5894 H       2  UNL2        0.0000
     40 C          12.0774    5.3337    4.6098 C.ar    2  UNL2        0.0000
     41 H          13.1085    5.4544    4.9046 H       2  UNL2        0.0000
     42 C          11.7640    5.0686    3.2851 C.ar    2  UNL2        0.0000
     43 H          12.5509    4.9727    2.5520 H       2  UNL2        0.0000
     44 C          10.4466    4.9139    2.8982 C.ar    2  UNL2        0.0000
     45 H          10.2208    4.6718    1.8688 H       2  UNL2        0.0000
     46 C           8.5471    8.0327    5.7127 C.ar    2  UNL2        0.0000
     47 C           8.3179    8.0095    7.0878 C.ar    2  UNL2        0.0000
     48 H           7.3640    7.6610    7.4588 H       2  UNL2        0.0000
     49 C           9.2926    8.4237    7.9727 C.ar    2  UNL2        0.0000
     50 H           9.1032    8.3971    9.0351 H       2  UNL2        0.0000
     51 C          10.5123    8.8741    7.4934 C.ar    2  UNL2        0.0000
     52 H          11.2781    9.2005    8.1802 H       2  UNL2        0.0000
     53 C          10.7437    8.9079    6.1296 C.ar    2  UNL2        0.0000
     54 H          11.6904    9.2632    5.7511 H       2  UNL2        0.0000
     55 C           9.7708    8.4877    5.2387 C.ar    2  UNL2        0.0000
     56 H           9.9909    8.5227    4.1830 H       2  UNL2        0.0000
     57 C           5.9834    8.7464    5.2046 C.ar    2  UNL2        0.0000
     58 C           5.0598    8.3994    6.1872 C.ar    2  UNL2        0.0000
     59 H           5.0148    7.3689    6.5235 H       2  UNL2        0.0000
     60 C           4.2056    9.3456    6.7211 C.ar    2  UNL2        0.0000
     61 H           3.5037    9.0649    7.4919 H       2  UNL2        0.0000
     62 C           4.2580   10.6523    6.2648 C.ar    2  UNL2        0.0000
     63 H           3.5907   11.3961    6.6722 H       2  UNL2        0.0000
     64 C           5.1771   11.0073    5.2903 C.ar    2  UNL2        0.0000
     65 H           5.2253   12.0277    4.9411 H       2  UNL2        0.0000
     66 C           6.0472   10.0654    4.7697 C.ar    2  UNL2        0.0000
     67 H           6.7763   10.3719    4.0337 H       2  UNL2        0.0000
     68 C           3.0588    6.3711    3.3239 C.ar    2  UNL2        0.0000
     69 C           2.8213    7.6536    3.8123 C.ar    2  UNL2        0.0000
     70 H           3.6484    8.3004    4.0638 H       2  UNL2        0.0000
     71 C           1.5294    8.1075    3.9977 C.ar    2  UNL2        0.0000
     72 H           1.3649    9.1059    4.3747 H       2  UNL2        0.0000
     73 C           0.4540    7.2847    3.7078 C.ar    2  UNL2        0.0000
     74 H          -0.5548    7.6357    3.8598 H       2  UNL2        0.0000
     75 C           0.6800    6.0083    3.2229 C.ar    2  UNL2        0.0000
     76 H          -0.1525    5.3613    2.9919 H       2  UNL2        0.0000
     77 C           1.9715    5.5508    3.0339 C.ar    2  UNL2        0.0000
     78 H           2.1264    4.5517    2.6514 H       2  UNL2        0.0000
     79 C           4.5464    4.3262    2.0813 C.ar    2  UNL2        0.0000
     80 C           4.0631    4.4325    0.7786 C.ar    2  UNL2        0.0000
     81 H           3.7982    5.3968    0.3680 H       2  UNL2        0.0000
     82 C           3.8967    3.2980    0.0068 C.ar    2  UNL2        0.0000
     83 H           3.5269    3.3887   -1.0035 H       2  UNL2        0.0000
     84 C           4.1924    2.0466    0.5268 C.ar    2  UNL2        0.0000
     85 H           4.0597    1.1656   -0.0819 H       2  UNL2        0.0000
     86 C           4.6454    1.9302    1.8291 C.ar    2  UNL2        0.0000
     87 H           4.8668    0.9592    2.2454 H       2  UNL2        0.0000
     88 C           4.8225    3.0654    2.6001 C.ar    2  UNL2        0.0000
     89 H           5.1799    2.9759    3.6183 H       2  UNL2        0.0000
     90 C           6.1427    4.3307    9.2744 C.3     1  UNL1        0.0000
     91 H           5.7405    3.3789    8.9316 H       1  UNL1        0.0000
     92 H           6.7031    4.1825   10.1952 H       1  UNL1        0.0000
     93 C           5.0708    5.3802    9.4312 C.3     1  UNL1        0.0000
     94 H           4.6161    5.5799    8.4592 H       1  UNL1        0.0000
     95 H           5.5288    6.3135    9.7628 H       1  UNL1        0.0000
     96 C           2.4911    6.3565   10.7712 C.3     1  UNL1        0.0000
     97 H           1.6906    6.1566   11.4758 H       1  UNL1        0.0000
     98 H           2.0320    6.5669    9.8094 H       1  UNL1        0.0000
     99 H           2.9993    7.2568   11.1033 H       1  UNL1        0.0000
    100 C           4.4656    4.4756   12.3479 C.3     1  UNL1        0.0000
    101 H           3.7016    4.3072   13.1003 H       1  UNL1        0.0000
    102 H           5.0920    5.2903   12.6995 H       1  UNL1        0.0000
    103 H           5.0799    3.5809   12.3066 H       1  UNL1        0.0000
    104 C           2.7438    3.3577    9.9702 C.3     1  UNL1        0.0000
    105 H           3.4079    2.5200    9.7784 H       1  UNL1        0.0000
    106 H           2.2349    3.5980    9.0409 H       1  UNL1        0.0000
    107 H           1.9899    3.0193   10.6739 H       1  UNL1        0.0000
    108 C           2.7738    3.4738    5.5747 C.3     1  UNL1        0.0000
    109 H           3.1864    3.9222    4.6702 H       1  UNL1        0.0000
    110 H           2.3485    2.4962    5.3524 H       1  UNL1        0.0000
    111 C           1.7855    4.3723    6.2406 C.ar    1  UNL1        0.0000
    112 C           2.1085    5.7035    6.4760 C.ar    1  UNL1        0.0000
    113 H           3.0712    6.0798    6.1597 H       1  UNL1        0.0000
    114 C           1.2057    6.5450    7.0958 C.ar    1  UNL1        0.0000
    115 H           1.4621    7.5812    7.2582 H       1  UNL1        0.0000
    116 C          -0.0279    6.0624    7.4999 C.ar    1  UNL1        0.0000
    117 H          -0.7334    6.7185    7.9864 H       1  UNL1        0.0000
    118 C          -0.3516    4.7344    7.2827 C.ar    1  UNL1        0.0000
    119 H          -1.3090    4.3516    7.6014 H       1  UNL1        0.0000
    120 C           0.5511    3.8919    6.6580 C.ar    1  UNL1        0.0000
    121 H           0.2947    2.8558    6.4899 H       1  UNL1        0.0000
@<TRIPOS>BOND
     1    83    82    1
     2    22    20    1
     3    85    84    1
     4    82    84   ar
     5    82    80   ar
     6    81    80    1
     7    23    20    1
     8    32    31    1
     9    84    86   ar
    10    21    20    1
    11    20    10    1
    12    34    33    1
    13    80    79   ar
    14    18    17    1
    15    13    11    1
    16    12    11    1
    17    31    33   ar
    18    31    29   ar
    19    33    24   ar
    20    11    10    1
    21    11     4    1
    22    86    87    1
    23    86    88   ar
    24    10    17    1
    25    10    14    1
    26    45    44    1
    27    17    19    1
    28    17     6    1
    29    79    88   ar
    30    79     6    1
    31    30    29    1
    32    29    27   ar
    33    43    42    1
    34    88    89    1
    35    78    77    1
    36    15    14    1
    37    44    42   ar
    38    44    35   ar
    39    24     4    1
    40    24    25   ar
    41    16    14    1
    42    14     5    1
    43    76    75    1
    44    77    75   ar
    45    77    68   ar
    46     6    68    1
    47    75    73   ar
    48    42    40   ar
    49    68    69   ar
    50     4    35    1
    51    73    74    1
    52    73    71   ar
    53    27    25   ar
    54    27    28    1
    55    69    71   ar
    56    69    70    1
    57    35    36   ar
    58    25    26    1
    59    71    72    1
    60    67    66    1
    61    56    55    1
    62    40    41    1
    63    40    38   ar
    64   109   108    1
    65     5    57    1
    66     5    46    1
    67    66    57   ar
    68    66    64   ar
    69     1     2    1
    70    65    64    1
    71    36    38   ar
    72    36    37    1
    73    57    58   ar
    74    55    46   ar
    75    55    53   ar
    76    64    62   ar
    77   110   108    1
    78    38    39    1
    79   108   111    1
    80   108     8    1
    81    46    47   ar
    82    54    53    1
    83    53    51   ar
    84     3     2    1
    85     3     8    1
    86   113   112    1
    87    58    59    1
    88    58    60   ar
    89   111   112   ar
    90   111   120   ar
    91    62    63    1
    92    62    60   ar
    93   112   114   ar
    94   121   120    1
    95     2     7    1
    96   120   118   ar
    97    60    61    1
    98    47    48    1
    99    47    49   ar
   100   114   115    1
   101   114   116   ar
   102   118   116   ar
   103   118   119    1
   104    51    49   ar
   105    51    52    1
   106   116   117    1
   107    49    50    1
   108     7    90    1
   109    94    93    1
   110    91    90    1
   111   106   104    1
   112    90    93    1
   113    90    92    1
   114    93    95    1
   115    93     9    1
   116   105   104    1
   117    98    96    1
   118   104     9    1
   119   104   107    1
   120     9    96    1
   121     9   100    1
   122    96    99    1
   123    96    97    1
   124   103   100    1
   125   100   102    1
   126   100   101    1
