@<TRIPOS>MOLECULE
CSD_code = YAPKAC | q = 1 | S = 0 | Stoichiometry = C18H24CoN10S2(1+) | MND = 6
 55 60 0 0 0
SMALL
GASTEIGER

@<TRIPOS>ATOM
      1 CO          7.9680    9.1205    1.8828 Co.oh   1  UNL1        0.0000
      2 S           7.7408    9.2939    4.1382 S.3     1  UNL1        0.0000
      3 S           9.0070    7.1104    2.0974 S.3     1  UNL1        0.0000
      4 N           7.8613    8.8217   -0.0094 N.pl3   1  UNL1        0.0000
      5 N           6.2913    8.3704    1.9186 N.pl3   1  UNL1        0.0000
      6 N           5.5810    8.1682    3.0336 N.2     1  UNL1        0.0000
      7 N           5.6026    8.3431    5.3276 N.pl3   1  UNL1        0.0000
      8 H           6.0865    8.7152    6.1310 H       1  UNL1        0.0000
      9 N           4.5795    7.4070    0.6522 N.3     1  UNL1        0.0000
     10 H           4.1729    7.1473    1.5402 H       1  UNL1        0.0000
     11 H           4.4047    6.7760   -0.1113 H       1  UNL1        0.0000
     12 N           7.3985   10.9463    1.7206 N.pl3   1  UNL1        0.0000
     13 N           9.6614    9.8338    1.9006 N.pl3   1  UNL1        0.0000
     14 N          10.7806    9.1126    2.0289 N.2     1  UNL1        0.0000
     15 N          11.6236    6.9875    2.2683 N.pl3   1  UNL1        0.0000
     16 H          11.4109    6.0112    2.4117 H       1  UNL1        0.0000
     17 N          10.9289   11.7973    1.8705 N.3     1  UNL1        0.0000
     18 H          11.7080   11.2085    2.1309 H       1  UNL1        0.0000
     19 H          10.9563   12.7391    2.2230 H       1  UNL1        0.0000
     20 C           8.7480    9.0908   -0.9608 C.3     1  UNL1        0.0000
     21 H           9.6728    9.5575   -0.6505 H       1  UNL1        0.0000
     22 C           8.5299    8.7910   -2.2933 C.2     1  UNL1        0.0000
     23 H           9.2845    9.0225   -3.0264 H       1  UNL1        0.0000
     24 C           7.3302    8.1919   -2.6582 C.2     1  UNL1        0.0000
     25 H           7.1289    7.9481   -3.6894 H       1  UNL1        0.0000
     26 C           6.4017    7.9113   -1.6767 C.2     1  UNL1        0.0000
     27 H           5.4575    7.4550   -1.9255 H       1  UNL1        0.0000
     28 C           6.6941    8.2312   -0.3489 C.2     1  UNL1        0.0000
     29 C           5.8201    7.9626    0.7708 C.3     1  UNL1        0.0000
     30 C           6.1706    8.5424    4.1391 C.2     1  UNL1        0.0000
     31 C           4.2679    7.8224    5.5169 C.3     1  UNL1        0.0000
     32 H           4.0308    7.2089    4.6469 H       1  UNL1        0.0000
     33 H           4.2737    7.1916    6.4088 H       1  UNL1        0.0000
     34 C           3.2420    8.9411    5.6715 C.3     1  UNL1        0.0000
     35 H           3.4837    9.5659    6.5279 H       1  UNL1        0.0000
     36 H           2.2535    8.5177    5.8210 H       1  UNL1        0.0000
     37 H           3.2257    9.5623    4.7796 H       1  UNL1        0.0000
     38 C           6.1724   11.4468    1.6206 C.3     1  UNL1        0.0000
     39 H           5.3540   10.7401    1.6178 H       1  UNL1        0.0000
     40 C           5.9228   12.8042    1.5324 C.2     1  UNL1        0.0000
     41 H           4.9088   13.1606    1.4599 H       1  UNL1        0.0000
     42 C           6.9976   13.6855    1.5396 C.2     1  UNL1        0.0000
     43 H           6.8363   14.7496    1.4694 H       1  UNL1        0.0000
     44 C           8.2754   13.1744    1.6390 C.2     1  UNL1        0.0000
     45 H           9.1320   13.8285    1.6373 H       1  UNL1        0.0000
     46 C           8.4525   11.7920    1.7347 C.2     1  UNL1        0.0000
     47 C           9.7345   11.1374    1.8652 C.3     1  UNL1        0.0000
     48 C          10.5955    7.8222    2.1378 C.2     1  UNL1        0.0000
     49 C          13.0070    7.3943    2.3826 C.3     1  UNL1        0.0000
     50 H          13.2652    7.5330    3.4395 H       1  UNL1        0.0000
     51 H          13.1082    8.3546    1.8742 H       1  UNL1        0.0000
     52 C          13.9165    6.3482    1.7577 C.3     1  UNL1        0.0000
     53 H          13.8115    5.3951    2.2701 H       1  UNL1        0.0000
     54 H          14.9519    6.6657    1.8359 H       1  UNL1        0.0000
     55 H          13.6743    6.2086    0.7075 H       1  UNL1        0.0000
@<TRIPOS>BOND
     1    25    24    1
     2    23    22    1
     3    24    22    2
     4    24    26    1
     5    22    20    1
     6    27    26    1
     7    26    28    2
     8    20    21    1
     9    20     4    1
    10    28     4    1
    11    28    29    1
    12    11     9    1
    13     4     1    1
    14     9    29    1
    15     9    10    1
    16    55    52    1
    17    29     5    1
    18    41    40    1
    19    43    42    1
    20    40    42    2
    21    40    38    1
    22    42    44    1
    23    39    38    1
    24    38    12    1
    25    45    44    1
    26    44    46    2
    27    12    46    1
    28    12     1    1
    29    46    47    1
    30    52    54    1
    31    52    53    1
    32    52    49    1
    33    47    17    1
    34    47    13    1
    35    17    18    1
    36    17    19    1
    37    51    49    1
    38     1    13    1
    39     1     5    1
    40     1     3    1
    41     1     2    1
    42    13    14    1
    43     5     6    1
    44    14    48    2
    45     3    48    1
    46    48    15    1
    47    15    49    1
    48    15    16    1
    49    49    50    1
    50     6    30    2
    51     2    30    1
    52    30     7    1
    53    32    31    1
    54    37    34    1
    55     7    31    1
    56     7     8    1
    57    31    34    1
    58    31    33    1
    59    34    36    1
    60    34    35    1
