@<TRIPOS>MOLECULE
CSD_code = YEFHEW | q = 0 | S = 0 | Stoichiometry = C24H60CoP9 | MND = 5
 94 96 0 0 0
SMALL
GASTEIGER

@<TRIPOS>ATOM
      1 CO          4.5298    3.0335    1.1094 Co.oh   1  UNL1        0.0000
      2 P           5.9680    1.6830    2.0876 P.3     1  UNL1        0.0000
      3 P           4.1005    3.8316    3.1752 P.3     1  UNL1        0.0000
      4 P           5.2030    5.0504    0.5880 P.3     1  UNL1        0.0000
      5 P           4.6881    2.1559   -0.8961 P.3     1  UNL1        0.0000
      6 P           2.3691    2.4490    0.8696 P.3     1  UNL1        0.0000
      7 P           0.8655    3.8813    0.1273 P.3     1  UNL1        0.0000
      8 P          -1.0679    6.7946    2.4659 P.3     1  UNL1        0.0000
      9 P          -3.5818    3.2907    0.4202 P.3     1  UNL1        0.0000
     10 P           1.8525   -0.2335    4.3968 P.3     1  UNL1        0.0000
     11 C           6.1466   -0.1506    1.9957 C.3     1  UNL1        0.0000
     12 C           7.7193    2.1343    1.7498 C.3     1  UNL1        0.0000
     13 C           5.9380    1.9023    3.9180 C.3     1  UNL1        0.0000
     14 C           5.6116    3.3613    4.1761 C.3     1  UNL1        0.0000
     15 C           4.4410    5.6713    3.1226 C.3     1  UNL1        0.0000
     16 C           5.5304    6.0204    2.1201 C.3     1  UNL1        0.0000
     17 C           4.0253    6.1652   -0.2787 C.3     1  UNL1        0.0000
     18 C           6.7231    5.4541   -0.3667 C.3     1  UNL1        0.0000
     19 C           3.9818    3.1059   -2.2979 C.3     1  UNL1        0.0000
     20 C           6.1602    1.4461   -1.7398 C.3     1  UNL1        0.0000
     21 C           3.5563    0.6985   -0.9160 C.3     1  UNL1        0.0000
     22 C           2.1769    1.1789   -0.4865 C.3     1  UNL1        0.0000
     23 C           0.8563    4.9193    1.6749 C.3     1  UNL1        0.0000
     24 C           0.4294    6.3733    1.4423 C.3     1  UNL1        0.0000
     25 C          -1.1782    8.5915    2.0355 C.3     1  UNL1        0.0000
     26 C          -0.2228    6.9611    4.1026 C.3     1  UNL1        0.0000
     27 C          -0.7813    3.0279    0.3484 C.3     1  UNL1        0.0000
     28 C          -1.9046    3.9999    0.0173 C.3     1  UNL1        0.0000
     29 C          -4.5430    4.8436    0.1200 C.3     1  UNL1        0.0000
     30 C          -3.4875    3.4250    2.2649 C.3     1  UNL1        0.0000
     31 C           1.5326    1.5843    2.2821 C.3     1  UNL1        0.0000
     32 C           2.4433    0.4797    2.7862 C.3     1  UNL1        0.0000
     33 C           3.1060   -1.5907    4.5342 C.3     1  UNL1        0.0000
     34 C           0.4508   -1.2604    3.7516 C.3     1  UNL1        0.0000
     35 H           5.2052   -0.6240    2.2674 H       1  UNL1        0.0000
     36 H           6.9292   -0.4830    2.6780 H       1  UNL1        0.0000
     37 H           6.4065   -0.4440    0.9794 H       1  UNL1        0.0000
     38 H           7.8574    3.1836    2.0059 H       1  UNL1        0.0000
     39 H           7.9220    2.0102    0.6872 H       1  UNL1        0.0000
     40 H           8.4033    1.5169    2.3328 H       1  UNL1        0.0000
     41 H           5.1456    1.2669    4.3252 H       1  UNL1        0.0000
     42 H           6.8927    1.6007    4.3637 H       1  UNL1        0.0000
     43 H           6.4621    3.9912    3.8994 H       1  UNL1        0.0000
     44 H           5.3872    3.5367    5.2346 H       1  UNL1        0.0000
     45 H           3.5091    6.1687    2.8355 H       1  UNL1        0.0000
     46 H           4.6959    6.0023    4.1351 H       1  UNL1        0.0000
     47 H           6.5086    5.7021    2.4931 H       1  UNL1        0.0000
     48 H           5.5784    7.0956    1.9117 H       1  UNL1        0.0000
     49 H           3.0283    6.0207    0.1338 H       1  UNL1        0.0000
     50 H           3.9975    5.8984   -1.3334 H       1  UNL1        0.0000
     51 H           4.3314    7.2066   -0.1732 H       1  UNL1        0.0000
     52 H           7.5813    4.9816    0.1083 H       1  UNL1        0.0000
     53 H           6.8742    6.5330   -0.4073 H       1  UNL1        0.0000
     54 H           6.6277    5.0617   -1.3784 H       1  UNL1        0.0000
     55 H           3.0674    3.5961   -1.9618 H       1  UNL1        0.0000
     56 H           3.7688    2.4490   -3.1425 H       1  UNL1        0.0000
     57 H           4.6990    3.8678   -2.6022 H       1  UNL1        0.0000
     58 H           6.5994    0.6710   -1.1138 H       1  UNL1        0.0000
     59 H           6.8971    2.2357   -1.8863 H       1  UNL1        0.0000
     60 H           5.8836    1.0245   -2.7064 H       1  UNL1        0.0000
     61 H           3.5395    0.2273   -1.9050 H       1  UNL1        0.0000
     62 H           3.9531   -0.0203   -0.1919 H       1  UNL1        0.0000
     63 H           1.5459    0.3517   -0.1489 H       1  UNL1        0.0000
     64 H           1.6761    1.6679   -1.3287 H       1  UNL1        0.0000
     65 H           0.1950    4.4439    2.4079 H       1  UNL1        0.0000
     66 H           1.8743    4.8733    2.0764 H       1  UNL1        0.0000
     67 H           0.1658    6.5370    0.3918 H       1  UNL1        0.0000
     68 H           1.2351    7.0717    1.6902 H       1  UNL1        0.0000
     69 H          -1.5348    8.6916    1.0116 H       1  UNL1        0.0000
     70 H          -0.2089    9.0800    2.1331 H       1  UNL1        0.0000
     71 H          -1.8953    9.0709    2.6999 H       1  UNL1        0.0000
     72 H           0.1330    5.9843    4.4255 H       1  UNL1        0.0000
     73 H          -0.9408    7.3275    4.8345 H       1  UNL1        0.0000
     74 H           0.6190    7.6502    4.0400 H       1  UNL1        0.0000
     75 H          -0.8231    2.1626   -0.3186 H       1  UNL1        0.0000
     76 H          -0.8832    2.6834    1.3798 H       1  UNL1        0.0000
     77 H          -1.8888    4.2433   -1.0487 H       1  UNL1        0.0000
     78 H          -1.7844    4.9287    0.5859 H       1  UNL1        0.0000
     79 H          -5.5686    4.6955    0.4525 H       1  UNL1        0.0000
     80 H          -4.5538    5.0580   -0.9467 H       1  UNL1        0.0000
     81 H          -4.1006    5.6808    0.6591 H       1  UNL1        0.0000
     82 H          -4.4972    3.3620    2.6665 H       1  UNL1        0.0000
     83 H          -3.0309    4.3699    2.5620 H       1  UNL1        0.0000
     84 H          -2.9119    2.5946    2.6694 H       1  UNL1        0.0000
     85 H           1.3889    2.3254    3.0740 H       1  UNL1        0.0000
     86 H           0.5645    1.1860    1.9690 H       1  UNL1        0.0000
     87 H           3.4327    0.9180    2.9620 H       1  UNL1        0.0000
     88 H           2.5433   -0.3163    2.0401 H       1  UNL1        0.0000
     89 H           2.8241   -2.2485    5.3542 H       1  UNL1        0.0000
     90 H           4.0780   -1.1569    4.7607 H       1  UNL1        0.0000
     91 H           3.1694   -2.1697    3.6131 H       1  UNL1        0.0000
     92 H          -0.3878   -0.6133    3.5028 H       1  UNL1        0.0000
     93 H           0.1311   -1.9446    4.5354 H       1  UNL1        0.0000
     94 H           0.7471   -1.8301    2.8711 H       1  UNL1        0.0000
@<TRIPOS>BOND
     1    56    19    1
     2    60    20    1
     3    57    19    1
     4    19    55    1
     5    19     5    1
     6    61    21    1
     7    59    20    1
     8    20    58    1
     9    20     5    1
    10    54    18    1
    11    50    17    1
    12    64    22    1
    13    77    28    1
    14    80    29    1
    15    21     5    1
    16    21    22    1
    17    21    62    1
    18     5     1    1
    19    22    63    1
    20    22     6    1
    21    53    18    1
    22    18    52    1
    23    18     4    1
    24    75    27    1
    25    17    51    1
    26    17    49    1
    27    17     4    1
    28    28    27    1
    29    28     9    1
    30    28    78    1
    31    29     9    1
    32    29    79    1
    33    29    81    1
    34     7    27    1
    35     7     6    1
    36     7    23    1
    37    27    76    1
    38    67    24    1
    39     9    30    1
    40     4     1    1
    41     4    16    1
    42    39    12    1
    43     6     1    1
    44     6    31    1
    45    37    11    1
    46    69    25    1
    47     1     2    1
    48     1     3    1
    49    24    23    1
    50    24    68    1
    51    24     8    1
    52    23    66    1
    53    23    65    1
    54    12    38    1
    55    12     2    1
    56    12    40    1
    57    48    16    1
    58    86    31    1
    59    11     2    1
    60    11    35    1
    61    11    36    1
    62    25    70    1
    63    25     8    1
    64    25    71    1
    65    88    32    1
    66     2    13    1
    67    16    47    1
    68    16    15    1
    69    30    83    1
    70    30    82    1
    71    30    84    1
    72    31    32    1
    73    31    85    1
    74     8    26    1
    75    32    87    1
    76    32    10    1
    77    45    15    1
    78    94    34    1
    79    15     3    1
    80    15    46    1
    81     3    14    1
    82    92    34    1
    83    91    33    1
    84    34    10    1
    85    34    93    1
    86    43    14    1
    87    13    14    1
    88    13    41    1
    89    13    42    1
    90    74    26    1
    91    26    72    1
    92    26    73    1
    93    14    44    1
    94    10    33    1
    95    33    90    1
    96    33    89    1
