@<TRIPOS>MOLECULE
CSD_code = YEHVIR | q = -1 | S = 0 | Stoichiometry = C8H10CoN2O8(1-) | MND = 6
 29 32 0 0 0
SMALL
GASTEIGER

@<TRIPOS>ATOM
      1 CO          6.9522   -0.0000    6.0898 Co.oh   1  UNL1        0.0000
      2 N           8.0255   -0.5820    4.5956 N.4     1  UNL1        0.0000
      3 H           8.9563   -0.1748    4.6825 H       1  UNL1        0.0000
      4 C           6.8861   -2.6148    5.4234 C.2     1  UNL1        0.0000
      5 C           8.1315   -2.0448    4.6798 C.3     1  UNL1        0.0000
      6 H           8.9929   -2.3090    5.2980 H       1  UNL1        0.0000
      7 H           8.2353   -2.5102    3.6943 H       1  UNL1        0.0000
      8 C           5.8955    0.2339    3.6138 C.2     1  UNL1        0.0000
      9 C           7.3990   -0.0920    3.3592 C.3     1  UNL1        0.0000
     10 H           7.4883   -0.8134    2.5411 H       1  UNL1        0.0000
     11 H           7.8640    0.8503    3.0593 H       1  UNL1        0.0000
     12 O           6.3153   -1.7667    6.1800 O.3     1  UNL1        0.0000
     13 O           6.5712   -3.7800    5.2802 O.2     1  UNL1        0.0000
     14 O           5.5996    0.3738    4.8422 O.3     1  UNL1        0.0000
     15 O           5.1395    0.3687    2.6717 O.2     1  UNL1        0.0000
     16 N           5.8790    0.5820    7.5841 N.4     1  UNL1        0.0000
     17 H           4.9482    0.1749    7.4972 H       1  UNL1        0.0000
     18 C           7.0185    2.6148    6.7563 C.2     1  UNL1        0.0000
     19 C           5.7731    2.0447    7.4999 C.3     1  UNL1        0.0000
     20 H           4.9117    2.3091    6.8818 H       1  UNL1        0.0000
     21 H           5.6694    2.5101    8.4855 H       1  UNL1        0.0000
     22 C           8.0091   -0.2340    8.5661 C.2     1  UNL1        0.0000
     23 C           6.5055    0.0920    8.8205 C.3     1  UNL1        0.0000
     24 H           6.4163    0.8134    9.6385 H       1  UNL1        0.0000
     25 H           6.0405   -0.8503    9.1204 H       1  UNL1        0.0000
     26 O           7.5892    1.7666    5.9997 O.3     1  UNL1        0.0000
     27 O           7.3336    3.7798    6.8998 O.2     1  UNL1        0.0000
     28 O           8.3049   -0.3738    7.3375 O.3     1  UNL1        0.0000
     29 O           8.7651   -0.3682    9.5080 O.2     1  UNL1        0.0000
@<TRIPOS>BOND
     1    10     9    1
     2    15     8    2
     3    11     9    1
     4     9     8    1
     5     9     2    1
     6     8    14    1
     7     7     5    1
     8     2     5    1
     9     2     3    1
    10     2     1    1
    11     5     6    1
    12     5     4    1
    13    14     1    1
    14    13     4    2
    15     4    12    1
    16    26     1    1
    17    26    18    1
    18     1    12    1
    19     1    28    1
    20     1    16    1
    21    18    27    2
    22    18    19    1
    23    20    19    1
    24    28    22    1
    25    17    16    1
    26    19    16    1
    27    19    21    1
    28    16    23    1
    29    22    23    1
    30    22    29    2
    31    23    25    1
    32    23    24    1
