@<TRIPOS>MOLECULE
CSD_code = YIDLAZ | q = 1 | S = 0 | Stoichiometry = C38H36BCoN11(1+) | MND = 5
 87 97 0 0 0
SMALL
GASTEIGER

@<TRIPOS>ATOM
      1 CO          7.0435   -2.2653    5.9046 Co.oh   1  UNL1        0.0000
      2 N           5.7153   -3.3259    6.7368 N.pl3   1  UNL1        0.0000
      3 N           6.0078   -4.1342    7.7656 N.3     1  UNL1        0.0000
      4 N           7.5075   -1.7059    7.6923 N.pl3   1  UNL1        0.0000
      5 N           7.7494   -2.6542    8.6180 N.3     1  UNL1        0.0000
      6 N           8.2734   -3.6579    5.9799 N.pl3   1  UNL1        0.0000
      7 N           8.3248   -4.4531    7.0624 N.3     1  UNL1        0.0000
      8 N           8.0460   -0.8684    5.1864 N.3     1  UNL1        0.0000
      9 H           8.7703   -0.4204    5.7397 H       1  UNL1        0.0000
     10 N           8.5451    0.8901    3.7603 N.3     1  UNL1        0.0000
     11 H           8.9546    1.4244    4.5083 H       1  UNL1        0.0000
     12 H           8.2899    1.3747    2.9175 H       1  UNL1        0.0000
     13 N           7.0795   -0.6810    3.0488 N.2     1  UNL1        0.3300
     14 N           5.8605   -2.3876    2.0686 N.pl3   1  UNL1        0.3300
     15 H           5.7649   -1.9102    1.1893 H       1  UNL1        0.0000
     16 N           6.5070   -2.7443    4.1655 N.pl3   1  UNL1        0.3300
     17 B           7.4514   -4.1218    8.2809 B       1  UNL1        0.0000
     18 H           7.6271   -4.8476    9.1847 H       1  UNL1        0.0000
     19 C           4.8776   -5.7166    9.3222 C.3     1  UNL1        0.0000
     20 H           5.5655   -6.5399    9.1408 H       1  UNL1        0.0000
     21 H           3.8753   -6.1152    9.4471 H       1  UNL1        0.0000
     22 H           5.1771   -5.2253   10.2461 H       1  UNL1        0.0000
     23 C           4.8956   -4.7583    8.1907 C.3     1  UNL1        0.0000
     24 C           3.8476   -4.3309    7.3939 C.2     1  UNL1        0.0000
     25 H           2.8196   -4.6178    7.4686 H       1  UNL1        0.0000
     26 C           4.4015   -3.4185    6.4906 C.2     1  UNL1        0.0000
     27 C           3.7404   -2.6527    5.4437 C.ar    1  UNL1        0.0000
     28 C           2.6797   -3.1974    4.7237 C.ar    1  UNL1        0.0000
     29 H           2.3407   -4.1964    4.9495 H       1  UNL1        0.0000
     30 C           2.0896   -2.4739    3.7046 C.ar    1  UNL1        0.0000
     31 H           1.2746   -2.9061    3.1447 H       1  UNL1        0.0000
     32 C           2.5435   -1.2017    3.3960 C.ar    1  UNL1        0.0000
     33 H           2.0811   -0.6411    2.5982 H       1  UNL1        0.0000
     34 C           3.5887   -0.6454    4.1163 C.ar    1  UNL1        0.0000
     35 H           3.9441    0.3468    3.8819 H       1  UNL1        0.0000
     36 C           4.1789   -1.3659    5.1362 C.ar    1  UNL1        0.0000
     37 H           4.9922   -0.9254    5.7142 H       1  UNL1        0.0000
     38 C           8.5545   -2.8590   10.9686 C.3     1  UNL1        0.0000
     39 H           7.6918   -3.4025   11.3486 H       1  UNL1        0.0000
     40 H           8.9061   -2.1781   11.7380 H       1  UNL1        0.0000
     41 H           9.3387   -3.5810   10.7505 H       1  UNL1        0.0000
     42 C           8.1963   -2.0913    9.7518 C.3     1  UNL1        0.0000
     43 C           8.2471   -0.7229    9.5476 C.2     1  UNL1        0.0000
     44 H           8.5450    0.0312   10.2460 H       1  UNL1        0.0000
     45 C           7.7970   -0.5188    8.2430 C.2     1  UNL1        0.0000
     46 C           7.6163    0.7697    7.5685 C.ar    1  UNL1        0.0000
     47 C           8.6946    1.6387    7.4168 C.ar    1  UNL1        0.0000
     48 H           9.6641    1.3574    7.8028 H       1  UNL1        0.0000
     49 C           8.5249    2.8500    6.7694 C.ar    1  UNL1        0.0000
     50 H           9.3646    3.5194    6.6554 H       1  UNL1        0.0000
     51 C           7.2797    3.2081    6.2764 C.ar    1  UNL1        0.0000
     52 H           7.1503    4.1537    5.7729 H       1  UNL1        0.0000
     53 C           6.1983    2.3602    6.4500 C.ar    1  UNL1        0.0000
     54 H           5.2218    2.6482    6.0913 H       1  UNL1        0.0000
     55 C           6.3633    1.1490    7.0969 C.ar    1  UNL1        0.0000
     56 H           5.5127    0.5071    7.2753 H       1  UNL1        0.0000
     57 C           9.4728   -6.5274    7.8311 C.3     1  UNL1        0.0000
     58 H           9.8958   -6.0970    8.7363 H       1  UNL1        0.0000
     59 H          10.1863   -7.2289    7.4093 H       1  UNL1        0.0000
     60 H           8.5684   -7.0664    8.1054 H       1  UNL1        0.0000
     61 C           9.1731   -5.4691    6.8366 C.3     1  UNL1        0.0000
     62 C           9.6748   -5.3177    5.5549 C.2     1  UNL1        0.0000
     63 H          10.3803   -5.9451    5.0511 H       1  UNL1        0.0000
     64 C           9.0843   -4.1620    5.0429 C.2     1  UNL1        0.0000
     65 C           9.2960   -3.5851    3.7103 C.ar    1  UNL1        0.0000
     66 C           8.8090   -4.2493    2.5883 C.ar    1  UNL1        0.0000
     67 H           8.2801   -5.1831    2.7087 H       1  UNL1        0.0000
     68 C           8.9849   -3.7032    1.3306 C.ar    1  UNL1        0.0000
     69 H           8.5923   -4.2169    0.4660 H       1  UNL1        0.0000
     70 C           9.6653   -2.5060    1.1801 C.ar    1  UNL1        0.0000
     71 H           9.7994   -2.0804    0.1976 H       1  UNL1        0.0000
     72 C          10.1902   -1.8658    2.2892 C.ar    1  UNL1        0.0000
     73 H          10.7428   -0.9463    2.1720 H       1  UNL1        0.0000
     74 C          10.0108   -2.4036    3.5509 C.ar    1  UNL1        0.0000
     75 H          10.4394   -1.9202    4.4159 H       1  UNL1        0.0000
     76 C           7.8657   -0.2511    4.0281 C.3     1  UNL1        0.0000
     77 C           6.5200   -1.8736    3.1367 C.cat   1  UNL1        0.0000
     78 C           5.4586   -3.6628    2.3797 C.ar    1  UNL1        0.0000
     79 C           5.8913   -3.8925    3.7013 C.ar    1  UNL1        0.0000
     80 C           5.6979   -5.1421    4.2767 C.ar    1  UNL1        0.0000
     81 H           6.0718   -5.3769    5.2602 H       1  UNL1        0.0000
     82 C           5.0302   -6.1015    3.5384 C.ar    1  UNL1        0.0000
     83 H           4.8699   -7.0779    3.9691 H       1  UNL1        0.0000
     84 C           4.5676   -5.8454    2.2510 C.ar    1  UNL1        0.0000
     85 H           4.0474   -6.6206    1.7112 H       1  UNL1        0.0000
     86 C           4.7854   -4.6212    1.6458 C.ar    1  UNL1        0.0000
     87 H           4.4563   -4.4225    0.6385 H       1  UNL1        0.0000
@<TRIPOS>BOND
     1    71    70    1
     2    69    68    1
     3    87    86    1
     4    70    68   ar
     5    70    72   ar
     6    15    14    1
     7    68    66   ar
     8    86    84   ar
     9    86    78   ar
    10    85    84    1
    11    14    78    1
    12    14    77    1
    13    73    72    1
    14    84    82   ar
    15    72    74   ar
    16    78    79   ar
    17    66    67    1
    18    66    65   ar
    19    33    32    1
    20    12    10    1
    21    13    77    2
    22    13    76    1
    23    77    16    1
    24    31    30    1
    25    32    30   ar
    26    32    34   ar
    27    82    83    1
    28    82    80   ar
    29    74    65   ar
    30    74    75    1
    31    79    16    1
    32    79    80   ar
    33    30    28   ar
    34    65    64    1
    35    10    76    1
    36    10    11    1
    37    35    34    1
    38    76     8    1
    39    34    36   ar
    40    16     1    1
    41    80    81    1
    42    28    29    1
    43    28    27   ar
    44    64    62    2
    45    64     6    1
    46    63    62    1
    47    36    27   ar
    48    36    37    1
    49     8     9    1
    50     8     1    1
    51    27    26    1
    52    62    61    1
    53    52    51    1
    54     1     6    1
    55     1     2    1
    56     1     4    1
    57     6     7    1
    58    54    53    1
    59    51    53   ar
    60    51    49   ar
    61    53    55   ar
    62    26     2    1
    63    26    24    2
    64    50    49    1
    65     2     3    1
    66    49    47   ar
    67    61     7    1
    68    61    57    1
    69     7    17    1
    70    55    56    1
    71    55    46   ar
    72    24    25    1
    73    24    23    1
    74    59    57    1
    75    47    46   ar
    76    47    48    1
    77    46    45    1
    78     4    45    1
    79     4     5    1
    80     3    23    1
    81     3    17    1
    82    57    60    1
    83    57    58    1
    84    23    19    1
    85    45    43    2
    86    17     5    1
    87    17    18    1
    88     5    42    1
    89    20    19    1
    90    19    21    1
    91    19    22    1
    92    43    42    1
    93    43    44    1
    94    42    38    1
    95    41    38    1
    96    38    39    1
    97    38    40    1
