@<TRIPOS>MOLECULE
CSD_code = YIXFIV | q = 0 | S = 0 | Stoichiometry = C21H36CoOP3 | MND = 6
 62 61 0 0 0
SMALL
GASTEIGER

@<TRIPOS>ATOM
      1 CO          2.3612    8.7104   10.5268 Co.oh   1  UNL1        0.0000
      2 P           2.0954    7.2296    8.9254 P.3     2  UNL2        0.0000
      3 P           0.2014    8.7903   11.3392 P.3     3  UNL3        0.0000
      4 P           3.4644    7.3614   12.0266 P.3     4  UNL4        0.0000
      5 C           7.4924   11.8641    8.6173 C.ar    1  UNL1        0.0000
      6 H           7.9475   11.8366    7.6364 H       1  UNL1        0.0000
      7 C           5.6911   11.2431   10.1132 C.ar    1  UNL1        0.0000
      8 C           7.5608   12.6122   10.8926 C.ar    1  UNL1        0.0000
      9 H           8.0421   13.1541   11.6961 H       1  UNL1        0.0000
     10 C           6.3047   11.2269    8.8400 C.ar    1  UNL1        0.0000
     11 H           5.8217   10.6996    8.0301 H       1  UNL1        0.0000
     12 C           6.3392   11.9651   11.1584 C.ar    1  UNL1        0.0000
     13 C           8.1322   12.5634    9.6516 C.ar    1  UNL1        0.0000
     14 H           9.0707   13.0632    9.4578 H       1  UNL1        0.0000
     15 O           2.8981    9.8597   11.9610 O.3     1  UNL1        0.0000
     16 C           4.4743   10.5936   10.3962 C.ar    1  UNL1        0.0000
     17 C           2.2811   10.3201    9.3160 C.3     1  UNL1        0.0000
     18 H           1.7436   10.1773    8.3859 H       1  UNL1        0.0000
     19 H           1.9692   11.1982    9.8734 H       1  UNL1        0.0000
     20 C           3.6195    9.9137    9.4136 C.3     1  UNL1        0.0000
     21 H           4.0984    9.4648    8.5458 H       1  UNL1        0.0000
     22 C           3.9320   10.6098   11.6868 C.ar    1  UNL1        0.0000
     23 C           5.7332   12.0273   12.4309 C.ar    1  UNL1        0.0000
     24 H           6.2233   12.5985   13.2082 H       1  UNL1        0.0000
     25 C          -0.6449    7.4291   12.2563 C.3     3  UNL3        0.0000
     26 H          -1.6280    7.7502   12.5978 H       3  UNL3        0.0000
     27 H          -0.0379    7.1514   13.1150 H       3  UNL3        0.0000
     28 H          -0.7520    6.5580   11.6144 H       3  UNL3        0.0000
     29 C           3.1560    7.6740   13.8100 C.3     4  UNL4        0.0000
     30 H           3.8420    7.0805   14.4136 H       4  UNL4        0.0000
     31 H           2.1307    7.4040   14.0543 H       4  UNL4        0.0000
     32 H           3.2980    8.7304   14.0139 H       4  UNL4        0.0000
     33 C          -1.1453    9.2165   10.1565 C.3     3  UNL3        0.0000
     34 H          -2.0844    9.3819   10.6827 H       3  UNL3        0.0000
     35 H          -1.2718    8.4097    9.4372 H       3  UNL3        0.0000
     36 H          -0.8644   10.1201    9.6199 H       3  UNL3        0.0000
     37 C           3.4431    5.5059   12.1274 C.3     4  UNL4        0.0000
     38 H           4.1315    5.1553   12.8948 H       4  UNL4        0.0000
     39 H           3.7221    5.0600   11.1760 H       4  UNL4        0.0000
     40 H           2.4364    5.1772   12.3817 H       4  UNL4        0.0000
     41 C           1.4034    7.7034    7.2879 C.3     2  UNL2        0.0000
     42 H           2.0639    8.4256    6.8123 H       2  UNL2        0.0000
     43 H           0.4240    8.1586    7.4214 H       2  UNL2        0.0000
     44 H           1.3121    6.8247    6.6499 H       2  UNL2        0.0000
     45 C           5.2813    7.6152   11.9814 C.3     4  UNL4        0.0000
     46 H           5.4961    8.6708   12.1315 H       4  UNL4        0.0000
     47 H           5.6652    7.3225   11.0056 H       4  UNL4        0.0000
     48 H           5.7668    7.0262   12.7592 H       4  UNL4        0.0000
     49 C           3.6307    6.4049    8.3375 C.3     2  UNL2        0.0000
     50 H           3.3994    5.6430    7.5934 H       2  UNL2        0.0000
     51 H           4.1470    5.9515    9.1801 H       2  UNL2        0.0000
     52 H           4.2881    7.1521    7.8976 H       2  UNL2        0.0000
     53 C           1.0477    5.7523    9.2491 C.3     2  UNL2        0.0000
     54 H           1.1380    5.0279    8.4403 H       2  UNL2        0.0000
     55 H           0.0111    6.0735    9.3332 H       2  UNL2        0.0000
     56 H           1.3473    5.2933   10.1876 H       2  UNL2        0.0000
     57 C          -0.0347   10.1401   12.5526 C.3     3  UNL3        0.0000
     58 H           0.2676   11.0771   12.0912 H       3  UNL3        0.0000
     59 H           0.6172    9.9580   13.4031 H       3  UNL3        0.0000
     60 H          -1.0737   10.1995   12.8764 H       3  UNL3        0.0000
     61 C           4.5636   11.3768   12.6965 C.ar    1  UNL1        0.0000
     62 H           4.1136   11.4098   13.6794 H       1  UNL1        0.0000
@<TRIPOS>BOND
     1    44    41    1
     2    42    41    1
     3    41    43    1
     4    41     2    1
     5    50    49    1
     6     6     5    1
     7    52    49    1
     8    11    10    1
     9    49     2    1
    10    49    51    1
    11    18    17    1
    12    54    53    1
    13    21    20    1
    14     5    10   ar
    15     5    13   ar
    16    10     7   ar
    17     2    53    1
    18    53    55    1
    19    53    56    1
    20    17    20    1
    21    17    19    1
    22    17     1    1
    23    20    16    1
    24    35    33    1
    25    14    13    1
    26    36    33    1
    27    13     8   ar
    28     7    16   ar
    29     7    12   ar
    30    33    34    1
    31    33     3    1
    32    16    22   ar
    33     1    15    1
    34     8    12   ar
    35     8     9    1
    36    47    45    1
    37    12    23   ar
    38    39    37    1
    39     3    25    1
    40     3    57    1
    41    28    25    1
    42    22    15    1
    43    22    61   ar
    44    45     4    1
    45    45    46    1
    46    45    48    1
    47     4    37    1
    48     4    29    1
    49    58    57    1
    50    37    40    1
    51    37    38    1
    52    25    26    1
    53    25    27    1
    54    23    61   ar
    55    23    24    1
    56    57    60    1
    57    57    59    1
    58    61    62    1
    59    29    32    1
    60    29    31    1
    61    29    30    1
