@<TRIPOS>MOLECULE
CSD_code = YIXFER | q = 0 | S = 0 | Stoichiometry = C18H36CoO2P3 | MND = 6
 60 58 0 0 0
SMALL
GASTEIGER

@<TRIPOS>ATOM
      1 CO          5.3220    4.5976    4.5468 Co.oh   1  UNL1        0.0000
      2 O           4.9515    6.0152    3.3351 O.3     1  UNL1        0.0000
      3 O           4.2631    8.1361    1.7998 O.3     1  UNL1        0.0000
      4 P           6.9399    4.5262    2.9191 P.3     2  UNL2        0.0000
      5 P           5.8055    6.3181    6.0137 P.3     3  UNL3        0.0000
      6 P           5.8973    2.9238    5.8397 P.3     4  UNL4        0.0000
      7 C           3.7206    3.5417    3.8345 C.3     1  UNL1        0.0000
      8 C           3.2655    4.5100    4.7332 C.3     1  UNL1        0.0000
      9 C           2.7833    5.7844    4.1741 C.ar    1  UNL1        0.0000
     10 C           1.5085    6.2969    4.3514 C.ar    1  UNL1        0.0000
     11 H           0.8150    5.8003    5.0164 H       1  UNL1        0.0000
     12 C           1.1293    7.4324    3.6612 C.ar    1  UNL1        0.0000
     13 H           0.1382    7.8424    3.7886 H       1  UNL1        0.0000
     14 C           2.0139    8.0525    2.7853 C.ar    1  UNL1        0.0000
     15 H           1.6849    8.9319    2.2524 H       1  UNL1        0.0000
     16 C           3.2981    7.5693    2.6143 C.ar    1  UNL1        0.0000
     17 C           3.7125    6.4318    3.3422 C.ar    1  UNL1        0.0000
     18 C           3.8969    9.2479    1.0328 C.3     1  UNL1        0.0000
     19 H           3.0700    9.0174    0.3509 H       1  UNL1        0.0000
     20 H           4.7786    9.5122    0.4491 H       1  UNL1        0.0000
     21 H           3.6137   10.1009    1.6616 H       1  UNL1        0.0000
     22 C           6.2235    4.1969    1.2648 C.3     2  UNL2        0.0000
     23 H           6.9952    4.2601    0.4981 H       2  UNL2        0.0000
     24 H           5.4531    4.9399    1.0788 H       2  UNL2        0.0000
     25 H           5.7766    3.2046    1.2527 H       2  UNL2        0.0000
     26 C           8.4286    3.4273    2.7877 C.3     2  UNL2        0.0000
     27 H           8.1122    2.3948    2.6570 H       2  UNL2        0.0000
     28 H           9.0240    3.4988    3.6959 H       2  UNL2        0.0000
     29 H           9.0442    3.7161    1.9371 H       2  UNL2        0.0000
     30 C           7.7694    6.1266    2.5827 C.3     2  UNL2        0.0000
     31 H           8.2973    6.0792    1.6306 H       2  UNL2        0.0000
     32 H           8.4780    6.3435    3.3796 H       2  UNL2        0.0000
     33 H           7.0083    6.9003    2.5483 H       2  UNL2        0.0000
     34 C           7.5377    6.7928    6.4426 C.3     3  UNL3        0.0000
     35 H           8.0174    7.1738    5.5440 H       3  UNL3        0.0000
     36 H           8.0947    5.9274    6.7918 H       3  UNL3        0.0000
     37 H           7.5450    7.5650    7.2107 H       3  UNL3        0.0000
     38 C           5.1896    7.9842    5.5624 C.3     3  UNL3        0.0000
     39 H           5.5130    8.7179    6.3007 H       3  UNL3        0.0000
     40 H           4.1028    7.9629    5.5123 H       3  UNL3        0.0000
     41 H           5.5713    8.2503    4.5797 H       3  UNL3        0.0000
     42 C           5.0902    6.2252    7.7120 C.3     3  UNL3        0.0000
     43 H           5.2920    7.1408    8.2662 H       3  UNL3        0.0000
     44 H           5.5072    5.3781    8.2521 H       3  UNL3        0.0000
     45 H           4.0141    6.0883    7.6228 H       3  UNL3        0.0000
     46 C           7.4015    3.0499    6.8940 C.3     4  UNL4        0.0000
     47 H           7.2569    3.8233    7.6451 H       4  UNL4        0.0000
     48 H           8.2482    3.3243    6.2676 H       4  UNL4        0.0000
     49 H           7.6063    2.0996    7.3862 H       4  UNL4        0.0000
     50 C           6.2731    1.3087    5.0431 C.3     4  UNL4        0.0000
     51 H           7.2030    1.4020    4.4878 H       4  UNL4        0.0000
     52 H           5.4798    1.0441    4.3484 H       4  UNL4        0.0000
     53 H           6.3748    0.5271    5.7957 H       4  UNL4        0.0000
     54 C           4.6937    2.3497    7.1071 C.3     4  UNL4        0.0000
     55 H           5.1272    1.5562    7.7153 H       4  UNL4        0.0000
     56 H           3.8024    1.9771    6.6066 H       4  UNL4        0.0000
     57 H           4.4103    3.1845    7.7443 H       4  UNL4        0.0000
     58 H           2.8517    4.2028    5.6919 H       1  UNL1        0.0000
     59 H           3.6720    2.4942    4.1134 H       1  UNL1        0.0000
     60 H           3.6097    3.7237    2.7716 H       1  UNL1        0.0000
@<TRIPOS>BOND
     1    19    18    1
     2    20    18    1
     3    23    22    1
     4    18    21    1
     5    18     3    1
     6    24    22    1
     7    25    22    1
     8    22     4    1
     9    31    30    1
    10     3    16    1
    11    29    26    1
    12    15    14    1
    13    33    30    1
    14    30     4    1
    15    30    32    1
    16    16    14   ar
    17    16    17   ar
    18    27    26    1
    19    60     7    1
    20    14    12   ar
    21    26     4    1
    22    26    28    1
    23     2    17    1
    24     2     1    1
    25    17     9   ar
    26    12    13    1
    27    12    10   ar
    28     7    59    1
    29     7     1    1
    30     7     8    1
    31     9    10   ar
    32     9     8    1
    33    52    50    1
    34    10    11    1
    35    51    50    1
    36    41    38    1
    37     8    58    1
    38    50    53    1
    39    50     6    1
    40    40    38    1
    41    35    34    1
    42    38     5    1
    43    38    39    1
    44     6    46    1
    45     6    54    1
    46     5    34    1
    47     5    42    1
    48    48    46    1
    49    34    36    1
    50    34    37    1
    51    56    54    1
    52    46    49    1
    53    46    47    1
    54    54    55    1
    55    54    57    1
    56    45    42    1
    57    42    44    1
    58    42    43    1
