@<TRIPOS>MOLECULE
CSD_code = YOCFED | q = 0 | S = 0 | Stoichiometry = C38H23CoN10O2 | MND = 6
 74 87 0 0 0
SMALL
GASTEIGER

@<TRIPOS>ATOM
      1 CO          1.6774    2.4473    4.9342 Co.oh   1  UNL1        0.0000
      2 N           1.7585    2.8218    3.1358 N.pl3   1  UNL1        0.0000
      3 N           1.6250    2.0845    6.7375 N.pl3   1  UNL1        0.0000
      4 N           2.4499    0.7824    4.3626 N.pl3   1  UNL1        0.5000
      5 N           3.4504    3.1765    5.4094 N.pl3   1  UNL1        0.5000
      6 O           1.5235    1.2877   10.7196 O.2     1  UNL1        0.0000
      7 N           3.1523   -0.4402    2.6507 N.pl3   1  UNL1        0.5000
      8 H           3.3569   -0.7049    1.7013 H       1  UNL1        0.0000
      9 N           0.1957    5.9626    3.8505 N.pl3   1  UNL1        0.5000
     10 C           2.6692    2.4185    7.5252 C.2     1  UNL1        0.0000
     11 N          -0.0255    1.6551    4.9706 N.ar    1  UNL1        0.0000
     12 C           3.6868    3.0410    6.7101 C.2     1  UNL1        0.0000
     13 O           2.1312    3.7315   -0.8025 O.2     1  UNL1        0.0000
     14 N           4.8974    3.5331    7.0529 N.pl3   1  UNL1        0.5000
     15 C           5.4852    4.0177    5.9086 C.ar    1  UNL1        0.0000
     16 C           2.6407    0.7439    3.0471 C.2     1  UNL1        0.0000
     17 C           1.4129    4.3607    1.3561 C.3     1  UNL1        0.0000
     18 H           1.0619    5.3147    0.9949 H       1  UNL1        0.0000
     19 C          -1.2699    1.5010    2.7751 C.ar    1  UNL1        0.0000
     20 H          -0.5296    1.9624    2.1378 H       1  UNL1        0.0000
     21 C           6.0755    4.7705    3.3416 C.ar    1  UNL1        0.0000
     22 H           6.3351    5.0761    2.3398 H       1  UNL1        0.0000
     23 N          -1.6125    0.6825    6.2542 N.ar    1  UNL1        0.0000
     24 C           2.8550   -0.9558    6.1481 C.ar    1  UNL1        0.0000
     25 H           2.5029   -0.3781    6.9859 H       1  UNL1        0.0000
     26 C           6.7093    4.6231    5.6754 C.ar    1  UNL1        0.0000
     27 H           7.4114    4.7952    6.4761 H       1  UNL1        0.0000
     28 N           0.8751    4.1928    5.0015 N.pl3   1  UNL1        0.5000
     29 C           1.3205    4.0107    2.6734 C.2     1  UNL1        0.0000
     30 C           0.7911    4.7529    3.7983 C.2     1  UNL1        0.0000
     31 C           1.9996    3.4483    0.3850 C.2     1  UNL1        0.0000
     32 C           4.8552    4.1680    3.5655 C.ar    1  UNL1        0.0000
     33 H           4.1597    3.9997    2.7594 H       1  UNL1        0.0000
     34 C           1.5429    1.5248    9.5125 C.2     1  UNL1        0.0000
     35 C          -0.4242    1.2360    6.2174 C.ar    1  UNL1        0.0000
     36 C           2.8422   -0.4364    4.8562 C.ar    1  UNL1        0.0000
     37 C           2.2841    1.9200    2.2817 C.2     1  UNL1        0.0000
     38 C           0.5380    1.4809    7.2732 C.2     1  UNL1        0.0000
     39 C           0.0987    5.0004    7.2638 C.ar    1  UNL1        0.0000
     40 H           0.4104    4.1403    7.8320 H       1  UNL1        0.0000
     41 C          -3.2495    0.2825    4.4094 C.ar    1  UNL1        0.0000
     42 H          -3.9956   -0.1797    5.0365 H       1  UNL1        0.0000
     43 C          -0.1384    6.2009    5.1624 C.ar    1  UNL1        0.0000
     44 C           3.7680   -3.0107    5.2344 C.ar    1  UNL1        0.0000
     45 H           4.1218   -4.0140    5.4146 H       1  UNL1        0.0000
     46 C          -0.7649    7.2720    5.7802 C.ar    1  UNL1        0.0000
     47 H          -1.0940    8.1305    5.2159 H       1  UNL1        0.0000
     48 C           3.7620   -2.5165    3.9461 C.ar    1  UNL1        0.0000
     49 H           4.1016   -3.1077    3.1100 H       1  UNL1        0.0000
     50 C          -2.4645    1.0531    2.2537 C.ar    1  UNL1        0.0000
     51 H          -2.6540    1.1683    1.1959 H       1  UNL1        0.0000
     52 C           2.6802    2.1707    8.8690 C.3     1  UNL1        0.0000
     53 H           3.5215    2.4430    9.4882 H       1  UNL1        0.0000
     54 C          -3.4396    0.4534    3.0567 C.ar    1  UNL1        0.0000
     55 H          -4.3592    0.1189    2.5988 H       1  UNL1        0.0000
     56 C           2.4211    2.1728    0.9461 C.3     1  UNL1        0.0000
     57 H           2.8444    1.4464    0.2701 H       1  UNL1        0.0000
     58 C           3.2933   -1.2237    3.7712 C.ar    1  UNL1        0.0000
     59 C           3.3203   -2.2430    6.3127 C.ar    1  UNL1        0.0000
     60 H           3.3371   -2.6727    7.3021 H       1  UNL1        0.0000
     61 C           4.5546    3.7853    4.8693 C.ar    1  UNL1        0.0000
     62 C          -2.0521    0.7262    4.9620 C.ar    1  UNL1        0.0000
     63 C           0.4597    1.1936    8.6060 C.2     1  UNL1        0.0000
     64 H          -0.4191    0.7120    9.0022 H       1  UNL1        0.0000
     65 C          -1.0579    1.3382    4.1402 C.ar    1  UNL1        0.0000
     66 C           0.2978    5.0675    5.8874 C.ar    1  UNL1        0.0000
     67 C           6.9874    4.9948    4.3751 C.ar    1  UNL1        0.0000
     68 H           7.9302    5.4686    4.1501 H       1  UNL1        0.0000
     69 C          -0.5275    6.0686    7.8698 C.ar    1  UNL1        0.0000
     70 H          -0.6990    6.0417    8.9345 H       1  UNL1        0.0000
     71 C          -0.9511    7.1854    7.1447 C.ar    1  UNL1        0.0000
     72 H          -1.4364    7.9966    7.6649 H       1  UNL1        0.0000
     73 H           5.2866    3.5374    7.9811 H       1  UNL1        0.0000
     74 H           0.0049    6.5602    3.0631 H       1  UNL1        0.0000
@<TRIPOS>BOND
     1    13    31    2
     2    57    56    1
     3    31    56    1
     4    31    17    1
     5    56    37    1
     6    18    17    1
     7    51    50    1
     8    17    29    1
     9     8     7    1
    10    20    19    1
    11    50    19   ar
    12    50    54   ar
    13    37    16    2
    14    37     2    1
    15    22    21    1
    16    55    54    1
    17     7    16    1
    18     7    58    1
    19    29     2    1
    20    29    30    2
    21    33    32    1
    22    19    65   ar
    23    16     4    1
    24    54    41   ar
    25    74     9    1
    26    49    48    1
    27     2     1    1
    28    21    32   ar
    29    21    67   ar
    30    32    61   ar
    31    58    48   ar
    32    58    36   ar
    33    30     9    1
    34    30    28    1
    35     9    43    1
    36    48    44   ar
    37    65    62   ar
    38    65    11   ar
    39    68    67    1
    40     4    36    1
    41     4     1    1
    42    67    26   ar
    43    41    62   ar
    44    41    42    1
    45    36    24   ar
    46    61     5    1
    47    61    15   ar
    48     1    11    1
    49     1    28    1
    50     1     5    1
    51     1     3    1
    52    62    23   ar
    53    11    35   ar
    54    28    66    1
    55    43    46   ar
    56    43    66   ar
    57    47    46    1
    58    44    45    1
    59    44    59   ar
    60     5    12    1
    61    26    15   ar
    62    26    27    1
    63    46    71   ar
    64    66    39   ar
    65    15    14    1
    66    24    59   ar
    67    24    25    1
    68    35    23   ar
    69    35    38    1
    70    59    60    1
    71    12    14    1
    72    12    10    2
    73     3    38    1
    74     3    10    1
    75    14    73    1
    76    71    72    1
    77    71    69   ar
    78    39    40    1
    79    39    69   ar
    80    38    63    2
    81    10    52    1
    82    69    70    1
    83    63    64    1
    84    63    34    1
    85    52    53    1
    86    52    34    1
    87    34     6    2
