@<TRIPOS>MOLECULE
CSD_code = YOMRAV | q = 1 | S = 0 | Stoichiometry = C30H30CoN8O4S2(1+) | MND = 6
 75 82 0 0 0
SMALL
GASTEIGER

@<TRIPOS>ATOM
      1 CO          8.5830    9.6354    5.6282 Co.oh   1  UNL1        0.0000
      2 S           9.0658    7.4404    5.9356 S.3     1  UNL1        0.0000
      3 O           8.2277   11.4930    5.3528 O.2     1  UNL1        0.0000
      4 C           3.4208   11.3724    4.1597 C.3     1  UNL1        0.0000
      5 H           3.5665   10.7072    3.2949 H       1  UNL1        0.0000
      6 H           3.1133   10.7594    5.0201 H       1  UNL1        0.0000
      7 O           2.4450   12.3433    3.8714 O.3     1  UNL1        0.0000
      8 H           1.6073   11.9040    3.6912 H       1  UNL1        0.0000
      9 N           6.8531    9.1046    5.1605 N.pl3   1  UNL1        0.0000
     10 N           5.9034   14.0731    4.7791 N.pl3   1  UNL1        0.0000
     11 H           5.8961   15.0882    4.7830 H       1  UNL1        0.0000
     12 N           6.5545    7.8139    5.1265 N.2     1  UNL1        0.0000
     13 N           7.2440    5.6278    5.5012 N.pl3   1  UNL1        0.0000
     14 H           8.0363    5.0769    5.8101 H       1  UNL1        0.0000
     15 C           7.1045   12.0346    5.0847 C.2     1  UNL1        0.0000
     16 C           7.0495   13.4525    5.0741 C.3     1  UNL1        0.0000
     17 C           8.2647   14.2476    5.3913 C.3     1  UNL1        0.0000
     18 H           8.0520   15.3130    5.4216 H       1  UNL1        0.0000
     19 H           9.0391   14.0539    4.6494 H       1  UNL1        0.0000
     20 H           8.6691   13.9287    6.3514 H       1  UNL1        0.0000
     21 C           4.7645   13.4215    4.4849 C.2     1  UNL1        0.0000
     22 H           3.8876   14.0012    4.2559 H       1  UNL1        0.0000
     23 C           4.7279   12.0494    4.4857 C.2     1  UNL1        0.0000
     24 C           5.8953   11.3123    4.7966 C.2     1  UNL1        0.0000
     25 C           5.8668    9.8950    4.8280 C.3     1  UNL1        0.0000
     26 H           4.9378    9.3958    4.5751 H       1  UNL1        0.0000
     27 C           7.4729    6.9514    5.4760 C.2     1  UNL1        0.0000
     28 C           6.0883    4.8946    5.2305 C.ar    1  UNL1        0.0000
     29 C           4.8987    5.4737    4.7999 C.ar    1  UNL1        0.0000
     30 H           4.8514    6.5409    4.6685 H       1  UNL1        0.0000
     31 C           3.7975    4.6744    4.5521 C.ar    1  UNL1        0.0000
     32 H           2.8767    5.1297    4.2200 H       1  UNL1        0.0000
     33 C           3.8651    3.3023    4.7258 C.ar    1  UNL1        0.0000
     34 H           3.0011    2.6865    4.5310 H       1  UNL1        0.0000
     35 C           5.0497    2.7243    5.1530 C.ar    1  UNL1        0.0000
     36 H           5.1126    1.6561    5.2925 H       1  UNL1        0.0000
     37 C           6.1557    3.5121    5.4039 C.ar    1  UNL1        0.0000
     38 H           7.0783    3.0596    5.7392 H       1  UNL1        0.0000
     39 S           7.9884    9.8914    7.8024 S.3     1  UNL1        0.0000
     40 O           9.0336    9.4458    3.7793 O.2     1  UNL1        0.0000
     41 O          15.0463   10.0612    3.0994 O.3     1  UNL1        0.0000
     42 H          15.2835    9.1279    3.0674 H       1  UNL1        0.0000
     43 N          10.3102   10.1378    6.1267 N.pl3   1  UNL1        0.0000
     44 N          11.5066    9.2159    1.2823 N.pl3   1  UNL1        0.0000
     45 H          11.5526    8.9892    0.2941 H       1  UNL1        0.0000
     46 N          10.5486   10.4949    7.3787 N.2     1  UNL1        0.0000
     47 N           9.7423   10.7192    9.5448 N.pl3   1  UNL1        0.0000
     48 H           8.9133   10.5864   10.1123 H       1  UNL1        0.0000
     49 C          10.1965    9.4899    3.2578 C.2     1  UNL1        0.0000
     50 C          10.3127    9.1619    1.8828 C.3     1  UNL1        0.0000
     51 C           9.1122    8.7760    1.0944 C.3     1  UNL1        0.0000
     52 H           9.3817    8.2011    0.2117 H       1  UNL1        0.0000
     53 H           8.5636    9.6652    0.7812 H       1  UNL1        0.0000
     54 H           8.4424    8.1939    1.7241 H       1  UNL1        0.0000
     55 C          12.6402    9.5552    1.9228 C.2     1  UNL1        0.0000
     56 H          13.5524    9.5845    1.3500 H       1  UNL1        0.0000
     57 C          12.6206    9.8702    3.2587 C.2     1  UNL1        0.0000
     58 C          13.9294   10.2406    3.9263 C.3     1  UNL1        0.0000
     59 H          13.9130   11.3085    4.1706 H       1  UNL1        0.0000
     60 H          14.0403    9.6761    4.8607 H       1  UNL1        0.0000
     61 C          11.3949    9.8540    3.9666 C.2     1  UNL1        0.0000
     62 C          11.3537   10.1980    5.3408 C.3     1  UNL1        0.0000
     63 H          12.2707   10.5328    5.8127 H       1  UNL1        0.0000
     64 C           9.5746   10.4122    8.2481 C.2     1  UNL1        0.0000
     65 C          10.8786   11.1186   10.2499 C.ar    1  UNL1        0.0000
     66 C          12.1080   11.3610    9.6453 C.ar    1  UNL1        0.0000
     67 H          12.2043   11.2369    8.5805 H       1  UNL1        0.0000
     68 C          13.1863   11.7532   10.4175 C.ar    1  UNL1        0.0000
     69 H          14.1381   11.9377    9.9427 H       1  UNL1        0.0000
     70 C          13.0563   11.9101   11.7872 C.ar    1  UNL1        0.0000
     71 H          13.9029   12.2148   12.3822 H       1  UNL1        0.0000
     72 C          11.8314   11.6725   12.3900 C.ar    1  UNL1        0.0000
     73 H          11.7196   11.7917   13.4567 H       1  UNL1        0.0000
     74 C          10.7477   11.2801   11.6294 C.ar    1  UNL1        0.0000
     75 H           9.7937   11.0931   12.1017 H       1  UNL1        0.0000
@<TRIPOS>BOND
     1    52    51    1
     2    45    44    1
     3    53    51    1
     4    51    54    1
     5    51    50    1
     6    44    50    1
     7    44    55    1
     8    56    55    1
     9    50    49    1
    10    55    57    2
    11    42    41    1
    12    41    58    1
    13    49    40    1
    14    49    61    2
    15    57    58    1
    16    57    61    1
    17     5     4    1
    18     8     7    1
    19    40     1    1
    20     7     4    1
    21    58    59    1
    22    58    60    1
    23    61    62    1
    24     4    23    1
    25     4     6    1
    26    32    31    1
    27    22    21    1
    28    21    23    2
    29    21    10    1
    30    23    24    1
    31    34    33    1
    32    31    33   ar
    33    31    29   ar
    34    26    25    1
    35    19    17    1
    36    30    29    1
    37    33    35   ar
    38    10    11    1
    39    10    16    1
    40    24    25    1
    41    24    15    2
    42    29    28   ar
    43    25     9    1
    44    16    15    1
    45    16    17    1
    46    15     3    1
    47    12     9    1
    48    12    27    2
    49    35    36    1
    50    35    37   ar
    51     9     1    1
    52    28    37   ar
    53    28    13    1
    54    62    63    1
    55    62    43    1
    56     3     1    1
    57    17    18    1
    58    17    20    1
    59    37    38    1
    60    27    13    1
    61    27     2    1
    62    13    14    1
    63     1     2    1
    64     1    43    1
    65     1    39    1
    66    43    46    1
    67    46    64    2
    68    39    64    1
    69    64    47    1
    70    67    66    1
    71    47    48    1
    72    47    65    1
    73    66    65   ar
    74    66    68   ar
    75    69    68    1
    76    65    74   ar
    77    68    70   ar
    78    74    75    1
    79    74    72   ar
    80    70    71    1
    81    70    72   ar
    82    72    73    1
