@<TRIPOS>MOLECULE
CSD_code = YOWROT | q = 0 | S = 0 | Stoichiometry = C21H33B10CoO8S2 | MND = 9
 75 78 0 0 0
SMALL
GASTEIGER

@<TRIPOS>ATOM
      1 CO          4.1461    3.3623   21.5722 Co.oh   1  UNL1        0.0000
      2 S           2.5684    4.9641   20.9625 S.3     2  UNL2        0.0000
      3 S           1.2978    2.0701   19.9203 S.3     3  UNL3        0.0000
      4 O          -1.0838    1.9581   17.9194 O.2     3  UNL3        0.0000
      5 O          -0.7687    4.1127   17.3678 O.3     3  UNL3        0.0000
      6 O           2.7266    0.1780   21.8240 O.2     1  UNL1        0.0000
      7 O           2.4552    0.4214   24.0380 O.3     1  UNL1        0.0000
      8 O           5.2882    0.9457   23.8678 O.2     1  UNL1        0.0000
      9 O           4.6617    2.2709   25.5656 O.3     1  UNL1        0.0000
     10 O           6.4738    3.8598   24.2263 O.2     1  UNL1        0.0000
     11 O           5.6252    5.9366   24.2237 O.3     1  UNL1        0.0000
     12 C           1.0822    4.3950   21.7834 C.3     1  UNL1        0.0000
     13 C           0.4289    2.9948   21.2080 C.3     1  UNL1        0.0000
     14 C           1.0312    3.0202   18.3820 C.3     3  UNL3        0.0000
     15 H           1.3541    4.0533   18.4975 H       3  UNL3        0.0000
     16 H           1.6748    2.5119   17.6611 H       3  UNL3        0.0000
     17 C          -0.3943    2.9393   17.8828 C.2     3  UNL3        0.0000
     18 C          -2.1018    4.2079   16.8561 C.3     3  UNL3        0.0000
     19 H          -2.0597    5.0042   16.1105 H       3  UNL3        0.0000
     20 H          -2.3621    3.2589   16.3768 H       3  UNL3        0.0000
     21 C          -3.0977    4.5357   17.9588 C.3     3  UNL3        0.0000
     22 H          -3.1304    3.7294   18.6864 H       3  UNL3        0.0000
     23 H          -4.0853    4.6618   17.5256 H       3  UNL3        0.0000
     24 H          -2.8106    5.4516   18.4683 H       3  UNL3        0.0000
     25 C           2.7376    2.3866   22.8017 C.3     1  UNL1        0.0000
     26 C           2.6649    0.8794   22.7984 C.2     1  UNL1        0.0000
     27 C           2.3775   -0.9915   24.1745 C.3     1  UNL1        0.0000
     28 H           1.6856   -1.4032   23.4376 H       1  UNL1        0.0000
     29 H           2.0236   -1.1802   25.1845 H       1  UNL1        0.0000
     30 H           3.3652   -1.4315   24.0217 H       1  UNL1        0.0000
     31 C           3.8701    2.8829   23.4941 C.3     1  UNL1        0.0000
     32 C           4.7277    1.9262   24.2810 C.2     1  UNL1        0.0000
     33 C           5.4239    1.4726   26.4597 C.3     1  UNL1        0.0000
     34 H           5.2071    0.4143   26.3016 H       1  UNL1        0.0000
     35 H           5.1372    1.7804   27.4619 H       1  UNL1        0.0000
     36 H           6.4878    1.6503   26.2902 H       1  UNL1        0.0000
     37 C           4.2586    4.2491   23.4065 C.3     1  UNL1        0.0000
     38 H           3.5376    5.0585   23.4454 H       1  UNL1        0.0000
     39 C           5.5616    4.6214   23.9848 C.2     1  UNL1        0.0000
     40 C           6.8452    6.4210   24.7829 C.3     1  UNL1        0.0000
     41 H           7.6705    6.1636   24.1088 H       1  UNL1        0.0000
     42 H           7.0210    5.9156   25.7396 H       1  UNL1        0.0000
     43 C           6.7256    7.9221   24.9633 C.3     1  UNL1        0.0000
     44 H           6.5425    8.3998   24.0048 H       1  UNL1        0.0000
     45 H           7.6456    8.3137   25.3874 H       1  UNL1        0.0000
     46 H           5.8988    8.1530   25.6290 H       1  UNL1        0.0000
     47 C           4.6034    3.2403   19.5645 C.2     4  UNL4        0.0000
     48 H           4.0241    3.5705   18.7167 H       4  UNL4        0.0000
     49 C           4.6579    1.9322   20.0839 C.2     4  UNL4        0.0000
     50 H           4.0911    1.0815   19.7466 H       4  UNL4        0.0000
     51 C           5.6703    1.9038   21.0733 C.2     4  UNL4        0.0000
     52 H           5.9858    1.0335   21.6213 H       4  UNL4        0.0000
     53 B           1.2697    3.0251   22.7449 B       1  UNL1        0.0000
     54 B           0.8130    4.5577   23.4987 B       1  UNL1        0.0000
     55 H           1.6003    5.1472   24.1334 H       1  UNL1        0.0000
     56 B          -0.1604    5.4303   22.3292 B       1  UNL1        0.0000
     57 H          -0.0056    6.5826   22.1840 H       1  UNL1        0.0000
     58 B          -0.4028    4.4350   20.8963 B       1  UNL1        0.0000
     59 H          -0.3575    4.8927   19.8229 H       1  UNL1        0.0000
     60 B          -0.2252    2.0793   22.4860 B       1  UNL1        0.0000
     61 H          -0.1494    0.9127   22.3973 H       1  UNL1        0.0000
     62 B          -0.0073    3.0513   23.9611 B       1  UNL1        0.0000
     63 H           0.1513    2.5599   25.0143 H       1  UNL1        0.0000
     64 B          -0.9264    4.5781   23.7102 B       1  UNL1        0.0000
     65 H          -1.4120    5.1703   24.5994 H       1  UNL1        0.0000
     66 B          -1.6855    4.5242   22.0961 B       1  UNL1        0.0000
     67 H          -2.6972    5.0706   21.8593 H       1  UNL1        0.0000
     68 B          -1.2722    2.9641   21.3677 B       1  UNL1        0.0000
     69 H          -1.8662    2.3707   20.5511 H       1  UNL1        0.0000
     70 B          -1.5829    3.0413   23.1061 B       1  UNL1        0.0000
     71 H          -2.5342    2.5384   23.5744 H       1  UNL1        0.0000
     72 C           6.2625    3.1804   21.1478 C.2     4  UNL4        0.0000
     73 H           7.1055    3.4422   21.7645 H       4  UNL4        0.0000
     74 C           5.5848    4.0289   20.2483 C.3     4  UNL4        0.0000
     75 H           5.8580    5.0414   19.9940 H       4  UNL4        0.0000
@<TRIPOS>BOND
     1    19    18    1
     2    20    18    1
     3    18     5    1
     4    18    21    1
     5     5    17    1
     6    23    21    1
     7    16    14    1
     8    17     4    2
     9    17    14    1
    10    21    24    1
    11    21    22    1
    12    14    15    1
    13    14     3    1
    14    48    47    1
    15    47    49    2
    16    47    74    1
    17    50    49    1
    18    59    58    1
    19    75    74    1
    20    49    51    1
    21    74    72    1
    22    69    68    1
    23    58    13    1
    24    58    12    1
    25    58    66    1
    26    51    72    2
    27    51    52    1
    28    72    73    1
    29    13    68    1
    30    13    12    1
    31    13    60    1
    32    68    60    1
    33    68    70    1
    34     1    31    1
    35    12    56    1
    36    12    53    1
    37     6    26    2
    38    67    66    1
    39    66    64    1
    40    57    56    1
    41    56    54    1
    42    61    60    1
    43    60    70    1
    44    53    25    1
    45    53    54    1
    46    53    62    1
    47    26    25    1
    48    26     7    1
    49    25    31    1
    50    70    71    1
    51    70    64    1
    52    37    38    1
    53    37    31    1
    54    37    39    1
    55    28    27    1
    56    31    32    1
    57    54    64    1
    58    54    55    1
    59    64    65    1
    60     8    32    2
    61    62    63    1
    62    39    11    1
    63    39    10    2
    64    44    43    1
    65    30    27    1
    66     7    27    1
    67    41    40    1
    68    27    29    1
    69    11    40    1
    70    32     9    1
    71    40    43    1
    72    40    42    1
    73    43    45    1
    74    43    46    1
    75     9    33    1
    76    36    33    1
    77    34    33    1
    78    33    35    1
