@<TRIPOS>MOLECULE
CSD_code = YURBAQ | q = 1 | S = 0 | Stoichiometry = C24H22B2CoN12P6(1+) | MND = 6
 67 78 0 0 0
SMALL
GASTEIGER

@<TRIPOS>ATOM
      1 CO          8.4280    4.2976    0.0000 Co.oh   1  UNL1        0.0000
      2 P           4.8454    1.9330    1.1673 P.3     1  UNL1        0.0000
      3 P           8.3946    7.8188    2.7314 P.3     1  UNL1        0.0000
      4 P          11.8063    2.3410    2.1522 P.3     1  UNL1        0.0000
      5 N           6.9416    3.1516    2.0580 N.3     1  UNL1        0.0000
      6 N           9.3985    3.2238    2.4473 N.pl3   1  UNL1        0.0000
      7 N           9.6248    3.3235    1.1402 N.3     1  UNL1        0.0000
      8 N           8.1357    5.2512    2.6613 N.pl3   1  UNL1        0.0000
      9 N           6.9953    3.3240    0.7436 N.pl3   1  UNL1        0.0000
     10 N           8.1969    5.6083    1.3813 N.3     1  UNL1        0.0000
     11 C           6.8144    4.1422    5.2662 C.ar    1  UNL1        0.0000
     12 H           6.4029    5.0506    4.8502 H       1  UNL1        0.0000
     13 C           8.3059    6.9225    1.2396 C.3     1  UNL1        0.0000
     14 H           8.3412    7.3511    0.2535 H       1  UNL1        0.0000
     15 C           5.8803    2.4448    2.4566 C.3     1  UNL1        0.0000
     16 H           5.7496    2.2520    3.5050 H       1  UNL1        0.0000
     17 B           8.0387    3.7381    2.9886 B       1  UNL1        0.0000
     18 C           8.0612    2.1284    5.0515 C.ar    1  UNL1        0.0000
     19 H           8.6432    1.4328    4.4641 H       1  UNL1        0.0000
     20 C          10.8305    2.8787    0.8123 C.3     1  UNL1        0.0000
     21 H          11.1365    2.8797   -0.2191 H       1  UNL1        0.0000
     22 C           8.2619    6.2746    3.5066 C.2     1  UNL1        0.0000
     23 H           8.2850    6.0774    4.5617 H       1  UNL1        0.0000
     24 C           7.6727    3.3512    4.4986 C.ar    1  UNL1        0.0000
     25 C           5.9750    2.7510    0.1216 C.2     1  UNL1        0.0000
     26 H           5.8961    2.8153   -0.9499 H       1  UNL1        0.0000
     27 C           6.8921    2.5910    7.0947 C.ar    1  UNL1        0.0000
     28 H           6.6068    2.3076    8.0956 H       1  UNL1        0.0000
     29 C          10.4440    2.7650    3.1358 C.2     1  UNL1        0.0000
     30 H          10.3759    2.7056    4.2057 H       1  UNL1        0.0000
     31 C           6.4383    3.7779    6.5472 C.ar    1  UNL1        0.0000
     32 H           5.7816    4.4204    7.1137 H       1  UNL1        0.0000
     33 C           7.6893    1.7565    6.3314 C.ar    1  UNL1        0.0000
     34 H           8.0170    0.8076    6.7280 H       1  UNL1        0.0000
     35 P          12.0107    6.6621   -1.1673 P.3     1  UNL1        0.0000
     36 P           8.4615    0.7763   -2.7314 P.3     1  UNL1        0.0000
     37 P           5.0498    6.2541   -2.1522 P.3     1  UNL1        0.0000
     38 N           9.9145    5.4436   -2.0580 N.3     1  UNL1        0.0000
     39 N           7.4576    5.3713   -2.4474 N.pl3   1  UNL1        0.0000
     40 N           7.2313    5.2717   -1.1402 N.3     1  UNL1        0.0000
     41 N           8.7204    3.3439   -2.6613 N.pl3   1  UNL1        0.0000
     42 N           9.8608    5.2711   -0.7436 N.pl3   1  UNL1        0.0000
     43 N           8.6592    2.9868   -1.3813 N.3     1  UNL1        0.0000
     44 C          10.0417    4.4528   -5.2662 C.ar    1  UNL1        0.0000
     45 H          10.4532    3.5445   -4.8502 H       1  UNL1        0.0000
     46 C           8.5502    1.6726   -1.2396 C.3     1  UNL1        0.0000
     47 H           8.5149    1.2440   -0.2535 H       1  UNL1        0.0000
     48 C          10.9758    6.1504   -2.4566 C.3     1  UNL1        0.0000
     49 H          11.1065    6.3431   -3.5050 H       1  UNL1        0.0000
     50 B           8.8174    4.8570   -2.9886 B       1  UNL1        0.0000
     51 C           8.7949    6.4667   -5.0515 C.ar    1  UNL1        0.0000
     52 H           8.2129    7.1623   -4.4641 H       1  UNL1        0.0000
     53 C           6.0256    5.7164   -0.8123 C.3     1  UNL1        0.0000
     54 H           5.7196    5.7154    0.2191 H       1  UNL1        0.0000
     55 C           8.5942    2.3205   -3.5066 C.2     1  UNL1        0.0000
     56 H           8.5711    2.5178   -4.5617 H       1  UNL1        0.0000
     57 C           9.1834    5.2439   -4.4986 C.ar    1  UNL1        0.0000
     58 C          10.8811    5.8441   -0.1216 C.2     1  UNL1        0.0000
     59 H          10.9600    5.7798    0.9499 H       1  UNL1        0.0000
     60 C           9.9640    6.0041   -7.0947 C.ar    1  UNL1        0.0000
     61 H          10.2493    6.2875   -8.0956 H       1  UNL1        0.0000
     62 C           6.4121    5.8301   -3.1358 C.2     1  UNL1        0.0000
     63 H           6.4802    5.8896   -4.2057 H       1  UNL1        0.0000
     64 C          10.4178    4.8172   -6.5472 C.ar    1  UNL1        0.0000
     65 H          11.0745    4.1747   -7.1136 H       1  UNL1        0.0000
     66 C           9.1668    6.8386   -6.3314 C.ar    1  UNL1        0.0000
     67 H           8.8391    7.7874   -6.7280 H       1  UNL1        0.0000
@<TRIPOS>BOND
     1    61    60    1
     2    65    64    1
     3    60    64   ar
     4    60    66   ar
     5    67    66    1
     6    64    44   ar
     7    66    51   ar
     8    44    45    1
     9    44    57   ar
    10    51    57   ar
    11    51    52    1
    12    56    55    1
    13    57    50    1
    14    63    62    1
    15    55    36    2
    16    55    41    1
    17    49    48    1
    18    62    39    1
    19    62    37    2
    20    50    41    1
    21    50    39    1
    22    50    38    1
    23    36    46    1
    24    41    43    1
    25    48    38    1
    26    48    35    1
    27    39    40    1
    28    37    53    1
    29    38    42    1
    30    43    46    1
    31    43     1    1
    32    46    47    1
    33    35    58    2
    34    40    53    1
    35    40     1    1
    36    26    25    1
    37    53    54    1
    38    42    58    1
    39    42     1    1
    40    21    20    1
    41    58    59    1
    42     1     9    1
    43     1     7    1
    44     1    10    1
    45    25     9    1
    46    25     2    2
    47    14    13    1
    48     9     5    1
    49    20     7    1
    50    20     4    1
    51     7     6    1
    52     2    15    1
    53    13    10    1
    54    13     3    1
    55    10     8    1
    56     5    15    1
    57     5    17    1
    58     4    29    2
    59     6    17    1
    60     6    29    1
    61    15    16    1
    62     8    17    1
    63     8    22    1
    64     3    22    2
    65    17    24    1
    66    29    30    1
    67    22    23    1
    68    19    18    1
    69    24    18   ar
    70    24    11   ar
    71    12    11    1
    72    18    33   ar
    73    11    31   ar
    74    33    34    1
    75    33    27   ar
    76    31    27   ar
    77    31    32    1
    78    27    28    1
