@<TRIPOS>MOLECULE
CSD_code = ZABVIK | q = 0 | S = 0 | Stoichiometry = C19H27ClCoN2P | MND = 4
 51 54 0 0 0
SMALL
GASTEIGER

@<TRIPOS>ATOM
      1 CO          3.6172    1.3221    2.2368 Co.oh   1  UNL1        0.0000
      2 CL          2.6596    2.6934    3.5040 Cl      1  UNL1        0.0000
      3 P           1.7983    0.8605    1.1403 P.3     1  UNL1        0.0000
      4 N           5.3126    1.4935    3.0836 N.pl3   1  UNL1        0.0000
      5 N           4.4295    0.0716    1.2356 N.pl3   1  UNL1        0.0000
      6 C           5.7071    2.3658    4.0102 C.2     1  UNL1        0.0000
      7 H           4.9851    3.1185    4.2955 H       1  UNL1        0.0000
      8 C           6.9535    2.3279    4.6024 C.2     1  UNL1        0.0000
      9 H           7.2166    3.0602    5.3485 H       1  UNL1        0.0000
     10 C           7.8510    1.3333    4.2250 C.2     1  UNL1        0.0000
     11 H           8.8309    1.2728    4.6741 H       1  UNL1        0.0000
     12 C           7.4613    0.4280    3.2616 C.2     1  UNL1        0.0000
     13 H           8.1311   -0.3535    2.9403 H       1  UNL1        0.0000
     14 C           6.1882    0.5303    2.6979 C.2     1  UNL1        0.0000
     15 C           5.6693   -0.3134    1.6499 C.2     1  UNL1        0.0000
     16 C           6.3301   -1.4010    1.0828 C.2     1  UNL1        0.0000
     17 H           7.3009   -1.6920    1.4499 H       1  UNL1        0.0000
     18 C           5.7297   -2.1023    0.0605 C.2     1  UNL1        0.0000
     19 H           6.2137   -2.9538   -0.3908 H       1  UNL1        0.0000
     20 C           4.4789   -1.6761   -0.3894 C.2     1  UNL1        0.0000
     21 H           3.9891   -2.1862   -1.2051 H       1  UNL1        0.0000
     22 C           3.8662   -0.5955    0.2070 C.2     1  UNL1        0.0000
     23 C           2.5502   -0.0721   -0.2760 C.3     1  UNL1        0.0000
     24 H           1.9208   -0.8615   -0.6897 H       1  UNL1        0.0000
     25 H           2.7504    0.6549   -1.0689 H       1  UNL1        0.0000
     26 C           0.6953   -0.4355    1.9606 C.3     1  UNL1        0.0000
     27 C           0.1391    0.1501    3.2596 C.3     1  UNL1        0.0000
     28 H           0.9245    0.6697    3.8064 H       1  UNL1        0.0000
     29 H          -0.2500   -0.6480    3.8909 H       1  UNL1        0.0000
     30 H          -0.6660    0.8537    3.0738 H       1  UNL1        0.0000
     31 C          -0.4402   -0.9757    1.0968 C.3     1  UNL1        0.0000
     32 H          -1.2099   -0.2234    0.9451 H       1  UNL1        0.0000
     33 H          -0.9022   -1.8234    1.6025 H       1  UNL1        0.0000
     34 H          -0.0867   -1.3195    0.1266 H       1  UNL1        0.0000
     35 C           1.6566   -1.5700    2.3320 C.3     1  UNL1        0.0000
     36 H           2.0439   -2.0821    1.4532 H       1  UNL1        0.0000
     37 H           1.1463   -2.3048    2.9535 H       1  UNL1        0.0000
     38 H           2.4984   -1.1697    2.9033 H       1  UNL1        0.0000
     39 C           0.8089    2.2035    0.2623 C.3     1  UNL1        0.0000
     40 C           0.0702    1.7493   -0.9959 C.3     1  UNL1        0.0000
     41 H           0.7504    1.3556   -1.7474 H       1  UNL1        0.0000
     42 H          -0.4421    2.6073   -1.4309 H       1  UNL1        0.0000
     43 H          -0.6766    0.9926   -0.7765 H       1  UNL1        0.0000
     44 C          -0.1660    2.8416    1.2499 C.3     1  UNL1        0.0000
     45 H          -1.0318    2.2056    1.4183 H       1  UNL1        0.0000
     46 H          -0.5225    3.7930    0.8568 H       1  UNL1        0.0000
     47 H           0.3347    3.0296    2.1984 H       1  UNL1        0.0000
     48 C           1.8712    3.2442   -0.1092 C.3     1  UNL1        0.0000
     49 H           2.3937    3.5749    0.7890 H       1  UNL1        0.0000
     50 H           1.4060    4.1115   -0.5750 H       1  UNL1        0.0000
     51 H           2.6057    2.8407   -0.8059 H       1  UNL1        0.0000
@<TRIPOS>BOND
     1    41    40    1
     2    42    40    1
     3    21    20    1
     4    25    23    1
     5    40    43    1
     6    40    39    1
     7    51    48    1
     8    24    23    1
     9    50    48    1
    10    19    18    1
    11    20    18    1
    12    20    22    2
    13    23    22    1
    14    23     3    1
    15    48    39    1
    16    48    49    1
    17    18    16    2
    18    34    31    1
    19    22     5    1
    20    39     3    1
    21    39    44    1
    22    46    44    1
    23    32    31    1
    24    16    17    1
    25    16    15    1
    26    31    33    1
    27    31    26    1
    28     3    26    1
    29     3     1    1
    30     5    15    1
    31     5     1    1
    32    44    45    1
    33    44    47    1
    34    36    35    1
    35    15    14    2
    36    26    35    1
    37    26    27    1
    38     1     4    1
    39     1     2    1
    40    35    38    1
    41    35    37    1
    42    14     4    1
    43    14    12    1
    44    13    12    1
    45    30    27    1
    46     4     6    1
    47    27    28    1
    48    27    29    1
    49    12    10    2
    50     6     7    1
    51     6     8    2
    52    10     8    1
    53    10    11    1
    54     8     9    1
