@<TRIPOS>MOLECULE
CSD_code = ZAPQOZ | q = 1 | S = 0 | Stoichiometry = C30H22CoN8Se2(1+) | MND = 6
 63 72 0 0 0
SMALL
GASTEIGER

@<TRIPOS>ATOM
      1 CO         14.7101    9.5326   18.4500 Co.oh   1  UNL1        0.0000
      2 SE         12.1169    8.8129   14.9359 Se      1  UNL1        0.0000
      3 N          15.7112   10.8393   19.4505 N.pl3   1  UNL1        0.0000
      4 C          15.7837   12.0179   18.7768 C.2     1  UNL1        0.0000
      5 C          16.4708   13.1177   19.3078 C.2     1  UNL1        0.0000
      6 H          16.5093   14.0323   18.7388 H       1  UNL1        0.0000
      7 C          16.8634    7.8676   18.2866 C.2     1  UNL1        0.0000
      8 SE         11.7731    8.8505   21.6906 Se      1  UNL1        0.0000
      9 N          16.3005    8.8832   17.5795 N.pl3   1  UNL1        0.0000
     10 C          17.0721   13.0082   20.5411 C.2     1  UNL1        0.0000
     11 H          17.6027   13.8422   20.9725 H       1  UNL1        0.0000
     12 N          13.8137   10.6845   16.1667 N.2     1  UNL1        0.0000
     13 N          14.4870   10.9092   17.2589 N.pl3   1  UNL1        0.0000
     14 C          18.0373    7.2404   17.8485 C.2     1  UNL1        0.0000
     15 H          18.4551    6.4436   18.4420 H       1  UNL1        0.0000
     16 C          13.0093    6.4191   18.1746 C.ar    1  UNL1        0.0000
     17 C          16.9778   11.7994   21.2262 C.2     1  UNL1        0.0000
     18 H          17.4258   11.6717   22.1972 H       1  UNL1        0.0000
     19 N          13.5752    8.6113   17.1971 N.pl3   1  UNL1        0.0000
     20 C          18.6238    7.6490   16.6722 C.2     1  UNL1        0.0000
     21 H          19.5248    7.1781   16.3120 H       1  UNL1        0.0000
     22 N          14.2633    8.0438   20.6693 N.2     1  UNL1        0.0000
     23 N          15.0598    8.1897   19.6492 N.pl3   1  UNL1        0.0000
     24 C          12.0070    6.3031   19.1312 C.ar    1  UNL1        0.0000
     25 H          11.1364    6.9424   19.0708 H       1  UNL1        0.0000
     26 C          16.2940   10.7497   20.6436 C.2     1  UNL1        0.0000
     27 H          16.2123    9.8073   21.1669 H       1  UNL1        0.0000
     28 C          11.7005   11.4367   18.4785 C.ar    1  UNL1        0.0000
     29 C          18.0277    8.6799   15.9504 C.2     1  UNL1        0.0000
     30 H          18.4471    9.0254   15.0205 H       1  UNL1        0.0000
     31 N          13.1602    9.7718   19.5671 N.pl3   1  UNL1        0.0000
     32 C          12.1288    5.3793   20.1533 C.ar    1  UNL1        0.0000
     33 H          11.3526    5.2999   20.8993 H       1  UNL1        0.0000
     34 C          15.1053   12.0253   17.5283 C.2     1  UNL1        0.0000
     35 H          15.0791   12.8740   16.8611 H       1  UNL1        0.0000
     36 C          16.8764    9.2645   16.4420 C.2     1  UNL1        0.0000
     37 H          16.4038   10.0648   15.8899 H       1  UNL1        0.0000
     38 C          13.2416    4.5577   20.2154 C.ar    1  UNL1        0.0000
     39 H          13.3353    3.8365   21.0123 H       1  UNL1        0.0000
     40 C          13.3019    9.4562   16.1992 C.2     1  UNL1        0.0000
     41 C          12.0165   13.5821   17.4511 C.ar    1  UNL1        0.0000
     42 H          12.4617   14.5656   17.4617 H       1  UNL1        0.0000
     43 C          16.1581    7.5106   19.4672 C.2     1  UNL1        0.0000
     44 H          16.4784    6.7390   20.1514 H       1  UNL1        0.0000
     45 C          14.2294    4.6545   19.2498 C.ar    1  UNL1        0.0000
     46 H          15.0894    4.0030   19.2878 H       1  UNL1        0.0000
     47 C          12.2764   12.7011   18.4857 C.ar    1  UNL1        0.0000
     48 H          12.9186   12.9904   19.3058 H       1  UNL1        0.0000
     49 C          12.0685    7.3042   16.0341 C.2     1  UNL1        0.0000
     50 H          11.4649    6.4452   15.8106 H       1  UNL1        0.0000
     51 C          11.1874   13.2067   16.4077 C.ar    1  UNL1        0.0000
     52 H          10.9927   13.8941   15.5993 H       1  UNL1        0.0000
     53 C          13.2328    8.8790   20.5581 C.2     1  UNL1        0.0000
     54 C          12.8832    7.4353   17.1129 C.2     1  UNL1        0.0000
     55 C          10.5999   11.9529   16.4061 C.ar    1  UNL1        0.0000
     56 H           9.9446   11.6609   15.5994 H       1  UNL1        0.0000
     57 C          11.1099   10.1718   20.5512 C.2     1  UNL1        0.0000
     58 H          10.1503   10.6310   20.6944 H       1  UNL1        0.0000
     59 C          10.8484   11.0713   17.4424 C.ar    1  UNL1        0.0000
     60 H          10.3867   10.0930   17.4525 H       1  UNL1        0.0000
     61 C          11.9841   10.4690   19.5550 C.2     1  UNL1        0.0000
     62 C          14.1181    5.5838   18.2310 C.ar    1  UNL1        0.0000
     63 H          14.8836    5.6612   17.4716 H       1  UNL1        0.0000
@<TRIPOS>BOND
     1     2    49    1
     2     2    40    1
     3    30    29    1
     4    52    51    1
     5    56    55    1
     6    50    49    1
     7    37    36    1
     8    29    36    2
     9    29    20    1
    10    49    54    2
    11    12    40    2
    12    12    13    1
    13    40    19    1
    14    21    20    1
    15    55    51   ar
    16    55    59   ar
    17    51    41   ar
    18    36     9    1
    19    20    14    2
    20    35    34    1
    21    54    19    1
    22    54    16    1
    23    19     1    1
    24    13    34    1
    25    13     1    1
    26    59    60    1
    27    59    28   ar
    28    41    42    1
    29    41    47   ar
    30    63    62    1
    31    34     4    2
    32     9     7    1
    33     9     1    1
    34    14     7    1
    35    14    15    1
    36    16    62   ar
    37    16    24   ar
    38    62    45   ar
    39     7    43    2
    40     1     3    1
    41     1    31    1
    42     1    23    1
    43    28    47   ar
    44    28    61    1
    45    47    48    1
    46     6     5    1
    47     4     5    1
    48     4     3    1
    49    25    24    1
    50    24    32   ar
    51    45    46    1
    52    45    38   ar
    53     5    10    2
    54     3    26    1
    55    43    23    1
    56    43    44    1
    57    61    31    1
    58    61    57    2
    59    31    53    1
    60    23    22    1
    61    32    38   ar
    62    32    33    1
    63    38    39    1
    64    10    11    1
    65    10    17    1
    66    57    58    1
    67    57     8    1
    68    53    22    2
    69    53     8    1
    70    26    27    1
    71    26    17    2
    72    17    18    1
