@<TRIPOS>MOLECULE
CSD_code = ZAPREQ | q = 1 | S = 0 | Stoichiometry = C32H26CoN8Se2(1+) | MND = 6
 69 78 0 0 0
SMALL
GASTEIGER

@<TRIPOS>ATOM
      1 CO          4.6097    9.1620   14.5124 Co.oh   1  UNL1        0.0000
      2 C           3.6535    7.3828   12.6800 C.2     1  UNL1        0.0000
      3 N           3.6072    7.5903   14.0227 N.pl3   1  UNL1        0.0000
      4 SE          7.4454   12.2681   13.1376 Se      1  UNL1        0.0000
      5 C           2.9813    6.3051   12.0874 C.2     1  UNL1        0.0000
      6 H           3.0380    6.1799   11.0184 H       1  UNL1        0.0000
      7 C           2.2723    5.4318   12.8803 C.2     1  UNL1        0.0000
      8 H           1.7501    4.5932   12.4477 H       1  UNL1        0.0000
      9 N           5.7569   10.1907   12.2823 N.2     1  UNL1        0.0000
     10 N           5.0106    9.2191   12.7236 N.pl3   1  UNL1        0.0000
     11 C           6.1417   11.2749   16.9218 C.ar    1  UNL1        0.0000
     12 C           2.2466    5.6475   14.2559 C.2     1  UNL1        0.0000
     13 H           1.7125    4.9840   14.9151 H       1  UNL1        0.0000
     14 N           5.7878   10.6823   14.5565 N.pl3   1  UNL1        0.0000
     15 C           4.9763   11.7652   17.4965 C.ar    1  UNL1        0.0000
     16 H           4.2749   12.3219   16.8905 H       1  UNL1        0.0000
     17 C           2.9226    6.7339   14.7771 C.2     1  UNL1        0.0000
     18 H           2.9119    6.9100   15.8436 H       1  UNL1        0.0000
     19 C           4.7222   11.5473   18.8377 C.ar    1  UNL1        0.0000
     20 H           3.8144   11.9359   19.2758 H       1  UNL1        0.0000
     21 C           4.4331    8.3298   11.9642 C.2     1  UNL1        0.0000
     22 H           4.5609    8.3183   10.8920 H       1  UNL1        0.0000
     23 C           5.6163   10.8373   19.6297 C.ar    1  UNL1        0.0000
     24 C           6.1941   10.9198   13.3068 C.2     1  UNL1        0.0000
     25 C           6.7882   10.3646   19.0486 C.ar    1  UNL1        0.0000
     26 H           7.4994    9.8188   19.6515 H       1  UNL1        0.0000
     27 C           7.2244    7.1267   12.3166 C.ar    1  UNL1        0.0000
     28 H           6.5307    6.3240   12.5248 H       1  UNL1        0.0000
     29 C           7.3135   12.3581   14.9971 C.2     1  UNL1        0.0000
     30 H           7.8847   13.0515   15.5845 H       1  UNL1        0.0000
     31 C           6.4171   11.4625   15.4864 C.2     1  UNL1        0.0000
     32 C           5.3457   10.6075   21.0821 C.3     1  UNL1        0.0000
     33 H           5.6664    9.6125   21.3820 H       1  UNL1        0.0000
     34 H           4.2891   10.7237   21.3085 H       1  UNL1        0.0000
     35 H           5.9010   11.3303   21.6806 H       1  UNL1        0.0000
     36 C           2.3733   10.3834   15.4832 C.2     1  UNL1        0.0000
     37 N           6.0730    8.1053   15.1810 N.pl3   1  UNL1        0.0000
     38 SE          7.2226    7.0070   17.3605 Se      1  UNL1        0.0000
     39 C           1.1988   11.1424   15.5775 C.2     1  UNL1        0.0000
     40 H           0.6805   11.1852   16.5215 H       1  UNL1        0.0000
     41 N           4.7721    8.3555   17.0945 N.2     1  UNL1        0.0000
     42 C           0.7402   11.8189   14.4703 C.2     1  UNL1        0.0000
     43 H          -0.1581   12.4139   14.5199 H       1  UNL1        0.0000
     44 N           4.0763    9.0789   16.2649 N.pl3   1  UNL1        0.0000
     45 C           7.7256    7.8896   13.3643 C.ar    1  UNL1        0.0000
     46 C           1.4635   11.7279   13.2837 C.2     1  UNL1        0.0000
     47 H           1.1469   12.2487   12.3958 H       1  UNL1        0.0000
     48 N           3.0602   10.2897   14.3138 N.pl3   1  UNL1        0.0000
     49 C           8.6425    8.8993   13.0951 C.ar    1  UNL1        0.0000
     50 H           9.0492    9.4816   13.9111 H       1  UNL1        0.0000
     51 C           2.6077   10.9544   13.2532 C.2     1  UNL1        0.0000
     52 H           3.1780   10.8764   12.3380 H       1  UNL1        0.0000
     53 C           9.0230    9.1635   11.7933 C.ar    1  UNL1        0.0000
     54 H           9.7279    9.9579   11.5959 H       1  UNL1        0.0000
     55 C           2.9528    9.6691   16.5652 C.2     1  UNL1        0.0000
     56 H           2.5261    9.6242   17.5562 H       1  UNL1        0.0000
     57 C           8.5126    8.4188   10.7368 C.ar    1  UNL1        0.0000
     58 C           5.8619    7.8965   16.4829 C.2     1  UNL1        0.0000
     59 C           7.6185    7.3917   11.0193 C.ar    1  UNL1        0.0000
     60 H           7.2256    6.7922   10.2110 H       1  UNL1        0.0000
     61 C           8.0623    7.0518   15.6944 C.2     1  UNL1        0.0000
     62 H           9.0373    6.6352   15.5268 H       1  UNL1        0.0000
     63 C           7.2922    7.6571   14.7534 C.2     1  UNL1        0.0000
     64 C           7.0554   10.5860   17.7120 C.ar    1  UNL1        0.0000
     65 H           7.9728   10.2198   17.2705 H       1  UNL1        0.0000
     66 C           8.9372    8.6928    9.3301 C.3     1  UNL1        0.0000
     67 H           8.1159    8.5297    8.6363 H       1  UNL1        0.0000
     68 H           9.7472    8.0185    9.0510 H       1  UNL1        0.0000
     69 H           9.2958    9.7127    9.2227 H       1  UNL1        0.0000
@<TRIPOS>BOND
     1    67    66    1
     2    68    66    1
     3    69    66    1
     4    66    57    1
     5    60    59    1
     6    57    59   ar
     7    57    53   ar
     8    22    21    1
     9     6     5    1
    10    59    27   ar
    11    54    53    1
    12    53    49   ar
    13    21     2    2
    14    21    10    1
    15     5     2    1
    16     5     7    2
    17     9    10    1
    18     9    24    2
    19    27    28    1
    20    27    45   ar
    21    52    51    1
    22    47    46    1
    23     8     7    1
    24     2     3    1
    25    10     1    1
    26     7    12    1
    27    49    45   ar
    28    49    50    1
    29     4    24    1
    30     4    29    1
    31    51    46    2
    32    51    48    1
    33    46    42    1
    34    24    14    1
    35    45    63    1
    36     3     1    1
    37     3    17    1
    38    12    17    2
    39    12    13    1
    40    48     1    1
    41    48    36    1
    42    42    43    1
    43    42    39    2
    44     1    14    1
    45     1    37    1
    46     1    44    1
    47    14    31    1
    48    63    37    1
    49    63    61    2
    50    17    18    1
    51    29    31    2
    52    29    30    1
    53    37    58    1
    54    36    39    1
    55    36    55    2
    56    31    11    1
    57    62    61    1
    58    39    40    1
    59    61    38    1
    60    44    55    1
    61    44    41    1
    62    58    41    2
    63    58    38    1
    64    55    56    1
    65    16    15    1
    66    11    15   ar
    67    11    64   ar
    68    65    64    1
    69    15    19   ar
    70    64    25   ar
    71    19    20    1
    72    19    23   ar
    73    25    23   ar
    74    25    26    1
    75    23    32    1
    76    32    34    1
    77    32    33    1
    78    32    35    1
