@<TRIPOS>MOLECULE
CSD_code = ZENZAW | q = 0 | S = 0 | Stoichiometry = C38H37CoN6O5S2 | MND = 6
 89 96 0 0 0
SMALL
GASTEIGER

@<TRIPOS>ATOM
      1 CO          3.1016    7.1510   19.5785 Co.oh   1  UNL1        0.0000
      2 O           1.4198    6.3533   18.4397 O.3     2  HOH2        0.0000
      3 H           1.1650    6.9989   17.7693 H       0  HOH0        0.0000
      4 H           1.8130    5.5976   17.9873 H       0  HOH0        0.0000
      5 N           2.2683    8.8242   19.3387 N.ar    1  UNL1        0.0000
      6 N           2.1168    7.1136   21.2312 N.pl3   1  UNL1        0.0000
      7 N           3.6030    5.2902   19.7631 N.3     1  UNL1        0.0000
      8 N           4.0844    7.3283   17.9865 N.ar    1  UNL1        0.0000
      9 N           4.5822    7.9832   20.3977 N.pl3   1  UNL1        0.0000
     10 C           2.2040    9.8296   18.4672 C.ar    1  UNL1        0.0000
     11 H           2.8623    9.8883   17.6194 H       1  UNL1        0.0000
     12 C           1.2082   10.7356   18.8452 C.ar    1  UNL1        0.0000
     13 H           0.9484   11.6366   18.3242 H       1  UNL1        0.0000
     14 C           0.6426   10.2517   20.0133 C.ar    1  UNL1        0.0000
     15 H          -0.1501   10.6900   20.5873 H       1  UNL1        0.0000
     16 C           1.3172    9.0579   20.3075 C.ar    1  UNL1        0.0000
     17 C           1.2918    8.1155   21.3425 C.3     1  UNL1        0.0000
     18 H           0.6270    8.2174   22.1950 H       1  UNL1        0.0000
     19 C           2.3453    6.2299   22.2791 C.ar    1  UNL1        0.0000
     20 C           2.3452    6.6575   23.6075 C.ar    1  UNL1        0.0000
     21 H           2.1451    7.6943   23.8342 H       1  UNL1        0.0000
     22 C           2.6488    5.7718   24.6228 C.ar    1  UNL1        0.0000
     23 H           2.6536    6.1157   25.6462 H       1  UNL1        0.0000
     24 C           2.9645    4.4561   24.3279 C.ar    1  UNL1        0.0000
     25 H           3.2151    3.7688   25.1214 H       1  UNL1        0.0000
     26 C           2.9697    4.0254   23.0116 C.ar    1  UNL1        0.0000
     27 H           3.2337    3.0062   22.7752 H       1  UNL1        0.0000
     28 C           2.6587    4.8963   21.9823 C.ar    1  UNL1        0.0000
     29 C           2.6732    4.4791   20.5397 C.3     1  UNL1        0.0000
     30 H           1.6651    4.5846   20.1207 H       1  UNL1        0.0000
     31 H           2.9728    3.4306   20.4614 H       1  UNL1        0.0000
     32 S           5.0554    4.5831   19.7127 S.O2    1  UNL1        0.0000
     33 O           6.0487    5.5351   19.2760 O.2     1  UNL1        0.0000
     34 O           5.3364    3.8419   20.9202 O.2     1  UNL1        0.0000
     35 C           4.8893    3.3691   18.4010 C.ar    1  UNL1        0.0000
     36 C           4.6728    2.0396   18.7064 C.ar    1  UNL1        0.0000
     37 H           4.6476    1.7423   19.7428 H       1  UNL1        0.0000
     38 C           4.5271    1.1168   17.6845 C.ar    1  UNL1        0.0000
     39 H           4.3573    0.0760   17.9204 H       1  UNL1        0.0000
     40 C           4.6048    1.5139   16.3541 C.ar    1  UNL1        0.0000
     41 C           4.8369    2.8562   16.0674 C.ar    1  UNL1        0.0000
     42 H           4.9132    3.1742   15.0375 H       1  UNL1        0.0000
     43 C           4.9766    3.7824   17.0856 C.ar    1  UNL1        0.0000
     44 H           5.1705    4.8237   16.8826 H       1  UNL1        0.0000
     45 C           4.4763    0.5103   15.2491 C.3     1  UNL1        0.0000
     46 H           4.0358    0.9614   14.3634 H       1  UNL1        0.0000
     47 H           3.8658   -0.3343   15.5590 H       1  UNL1        0.0000
     48 H           5.4617    0.1314   14.9767 H       1  UNL1        0.0000
     49 C           4.0191    7.0660   16.6809 C.ar    1  UNL1        0.0000
     50 H           3.1792    6.5681   16.2246 H       1  UNL1        0.0000
     51 C           5.1670    7.5297   16.0317 C.ar    1  UNL1        0.0000
     52 H           5.3704    7.4477   14.9811 H       1  UNL1        0.0000
     53 C           5.9736    8.1014   17.0015 C.ar    1  UNL1        0.0000
     54 H           6.9358    8.5547   16.8706 H       1  UNL1        0.0000
     55 C           5.2800    7.9669   18.2106 C.ar    1  UNL1        0.0000
     56 C           5.5068    8.3141   19.5457 C.3     1  UNL1        0.0000
     57 H           6.3970    8.8405   19.8722 H       1  UNL1        0.0000
     58 C           4.6471    8.4510   21.7289 C.ar    1  UNL1        0.0000
     59 C           4.0643    9.6891   22.0036 C.ar    1  UNL1        0.0000
     60 H           3.6075   10.2414   21.1962 H       1  UNL1        0.0000
     61 C           4.0718   10.2068   23.2837 C.ar    1  UNL1        0.0000
     62 H           3.6135   11.1650   23.4777 H       1  UNL1        0.0000
     63 C           4.6783    9.4970   24.3067 C.ar    1  UNL1        0.0000
     64 H           4.6916    9.8942   25.3105 H       1  UNL1        0.0000
     65 C           5.2846    8.2850   24.0325 C.ar    1  UNL1        0.0000
     66 H           5.7835    7.7424   24.8209 H       1  UNL1        0.0000
     67 C           5.2800    7.7401   22.7541 C.ar    1  UNL1        0.0000
     68 C           5.9880    6.4381   22.4985 C.3     1  UNL1        0.0000
     69 H           5.2889    5.6938   22.1036 H       1  UNL1        0.0000
     70 H           6.4105    6.0644   23.4341 H       1  UNL1        0.0000
     71 N           7.1085    6.6409   21.5994 N.3     1  UNL1        0.0000
     72 H           6.8637    6.4702   20.6275 H       1  UNL1        0.0000
     73 S           8.4957    5.7870   21.9332 S.O2    1  UNL1        0.0000
     74 O           9.5486    6.4277   21.1962 O.2     1  UNL1        0.0000
     75 O           8.6309    5.7102   23.3642 O.2     1  UNL1        0.0000
     76 C           8.2610    4.1491   21.2635 C.ar    1  UNL1        0.0000
     77 C           7.9110    3.1049   22.0919 C.ar    1  UNL1        0.0000
     78 H           7.8248    3.2857   23.1515 H       1  UNL1        0.0000
     79 C           7.6835    1.8557   21.5433 C.ar    1  UNL1        0.0000
     80 H           7.4097    1.0294   22.1837 H       1  UNL1        0.0000
     81 C           7.7890    1.6549   20.1720 C.ar    1  UNL1        0.0000
     82 C           8.1396    2.7260   19.3571 C.ar    1  UNL1        0.0000
     83 H           8.2169    2.5799   18.2888 H       1  UNL1        0.0000
     84 C           8.3814    3.9743   19.9003 C.ar    1  UNL1        0.0000
     85 H           8.6603    4.8158   19.2871 H       1  UNL1        0.0000
     86 C           7.5627    0.2948   19.5817 C.3     1  UNL1        0.0000
     87 H           7.2125    0.3721   18.5551 H       1  UNL1        0.0000
     88 H           6.8357   -0.2659   20.1642 H       1  UNL1        0.0000
     89 H           8.4975   -0.2669   19.5809 H       1  UNL1        0.0000
@<TRIPOS>BOND
     1    46    45    1
     2    48    45    1
     3    52    51    1
     4    42    41    1
     5    45    47    1
     6    45    40    1
     7    51    49   ar
     8    51    53   ar
     9    41    40   ar
    10    41    43   ar
    11    50    49    1
    12    40    38   ar
    13    49     8   ar
    14    54    53    1
    15    44    43    1
    16    53    55   ar
    17    43    35   ar
    18    11    10    1
    19    38    39    1
    20    38    36   ar
    21     3     2    1
    22     8    55   ar
    23     8     1    1
    24     4     2    1
    25    55    56    1
    26    83    82    1
    27    13    12    1
    28    35    36   ar
    29    35    32    1
    30    10    12   ar
    31    10     5   ar
    32    87    86    1
    33    36    37    1
    34    12    14   ar
    35    33    32    2
    36    85    84    1
    37     5     1    1
    38     5    16   ar
    39    82    84   ar
    40    82    81   ar
    41    56    57    1
    42    56     9    1
    43     1     7    1
    44     1     9    1
    45     1     6    1
    46    89    86    1
    47    86    88    1
    48    86    81    1
    49    32     7    1
    50    32    34    2
    51     7    29    1
    52    84    76   ar
    53    14    16   ar
    54    14    15    1
    55    30    29    1
    56    81    79   ar
    57    16    17    1
    58     9    58    1
    59    31    29    1
    60    29    28    1
    61    72    71    1
    62    60    59    1
    63    74    73    2
    64     6    17    1
    65     6    19    1
    66    76    73    1
    67    76    77   ar
    68    17    18    1
    69    79    77   ar
    70    79    80    1
    71    71    73    1
    72    71    68    1
    73    58    59   ar
    74    58    67   ar
    75    73    75    2
    76    28    19   ar
    77    28    26   ar
    78    59    61   ar
    79    77    78    1
    80    69    68    1
    81    19    20   ar
    82    68    67    1
    83    68    70    1
    84    67    65   ar
    85    27    26    1
    86    26    24   ar
    87    61    62    1
    88    61    63   ar
    89    20    21    1
    90    20    22   ar
    91    65    63   ar
    92    65    66    1
    93    63    64    1
    94    24    22   ar
    95    24    25    1
    96    22    23    1
