@<TRIPOS>MOLECULE
CSD_code = ZEQKAJ | q = 1 | S = 0 | Stoichiometry = C16H18CoN8S2(1+) | MND = 6
 45 50 0 0 0
SMALL
GASTEIGER

@<TRIPOS>ATOM
      1 CO          2.0084   -5.7710    2.3356 Co.oh   1  UNL1        0.0000
      2 S           1.5393   -7.4376    0.8466 S.3     1  UNL1        0.0000
      3 S           1.6422   -4.1979    0.7215 S.3     1  UNL1        0.0000
      4 N           3.5339   -8.5481   -0.4876 N.pl3   1  UNL1        0.0000
      5 H           4.5105   -8.6114   -0.7334 H       1  UNL1        0.0000
      6 N           4.1563   -6.9051    0.9659 N.2     1  UNL1        0.0000
      7 N           3.7624   -6.0173    1.8434 N.pl3   1  UNL1        0.0000
      8 N           2.7060   -4.3913    3.4927 N.pl3   1  UNL1        0.0000
      9 N          -0.7692   -3.1353    0.5061 N.pl3   1  UNL1        0.0000
     10 H          -1.7375   -3.0672    0.7819 H       1  UNL1        0.0000
     11 N          -0.5529   -4.6811    2.1688 N.2     1  UNL1        0.0000
     12 N           0.2410   -5.5250    2.7778 N.pl3   1  UNL1        0.0000
     13 N           2.0056   -7.0748    3.7600 N.pl3   1  UNL1        0.0000
     14 C           2.5762   -9.3824   -1.1654 C.3     1  UNL1        0.0000
     15 H           3.0958  -10.0352   -1.8596 H       1  UNL1        0.0000
     16 H           1.8558   -8.7704   -1.7132 H       1  UNL1        0.0000
     17 H           2.0232   -9.9874   -0.4434 H       1  UNL1        0.0000
     18 C           3.1991   -7.6362    0.4169 C.2     1  UNL1        0.0000
     19 C           4.6113   -5.2171    2.4192 C.2     1  UNL1        0.0000
     20 H           5.6660   -5.2474    2.1844 H       1  UNL1        0.0000
     21 C           4.0488   -4.2953    3.3493 C.2     1  UNL1        0.0000
     22 C           4.7905   -3.3484    4.0644 C.2     1  UNL1        0.0000
     23 H           5.8576   -3.2992    3.9213 H       1  UNL1        0.0000
     24 C           4.1381   -2.4968    4.9295 C.2     1  UNL1        0.0000
     25 H           4.6854   -1.7545    5.4887 H       1  UNL1        0.0000
     26 C           2.7580   -2.6089    5.0673 C.2     1  UNL1        0.0000
     27 H           2.2092   -1.9619    5.7311 H       1  UNL1        0.0000
     28 C           2.0864   -3.5674    4.3319 C.2     1  UNL1        0.0000
     29 H           1.0131   -3.6673    4.4199 H       1  UNL1        0.0000
     30 C          -0.2944   -2.3607   -0.6107 C.3     1  UNL1        0.0000
     31 H          -1.1061   -1.7530   -0.9979 H       1  UNL1        0.0000
     32 H           0.0756   -3.0180   -1.4010 H       1  UNL1        0.0000
     33 H           0.5280   -1.7120   -0.3005 H       1  UNL1        0.0000
     34 C          -0.0120   -3.9983    1.1722 C.2     1  UNL1        0.0000
     35 C          -0.1922   -6.2784    3.7458 C.2     1  UNL1        0.0000
     36 H          -1.2221   -6.2439    4.0722 H       1  UNL1        0.0000
     37 C           0.7738   -7.1579    4.3156 C.2     1  UNL1        0.0000
     38 C           0.5042   -8.0555    5.3546 C.2     1  UNL1        0.0000
     39 H          -0.4897   -8.0963    5.7695 H       1  UNL1        0.0000
     40 C           1.5137   -8.8716    5.8174 C.2     1  UNL1        0.0000
     41 H           1.3308   -9.5765    6.6130 H       1  UNL1        0.0000
     42 C           2.7747   -8.7731    5.2374 C.2     1  UNL1        0.0000
     43 H           3.5908   -9.3936    5.5681 H       1  UNL1        0.0000
     44 C           2.9736   -7.8634    4.2159 C.2     1  UNL1        0.0000
     45 H           3.9445   -7.7750    3.7476 H       1  UNL1        0.0000
@<TRIPOS>BOND
     1    15    14    1
     2    16    14    1
     3    32    30    1
     4    14     4    1
     5    14    17    1
     6    31    30    1
     7     5     4    1
     8    30    33    1
     9    30     9    1
    10     4    18    1
    11    18     2    1
    12    18     6    2
    13     9    10    1
    14     9    34    1
    15     3    34    1
    16     3     1    1
    17     2     1    1
    18     6     7    1
    19    34    11    2
    20     7     1    1
    21     7    19    1
    22    11    12    1
    23    20    19    1
    24     1    12    1
    25     1     8    1
    26     1    13    1
    27    19    21    2
    28    12    35    1
    29    21     8    1
    30    21    22    1
    31     8    28    1
    32    35    36    1
    33    35    37    2
    34    45    44    1
    35    13    44    1
    36    13    37    1
    37    23    22    1
    38    22    24    2
    39    44    42    2
    40    37    38    1
    41    28    29    1
    42    28    26    2
    43    24    26    1
    44    24    25    1
    45    26    27    1
    46    42    43    1
    47    42    40    1
    48    38    39    1
    49    38    40    2
    50    40    41    1
