@<TRIPOS>MOLECULE
CSD_code = ZEWDIO | q = 0 | S = 0 | Stoichiometry = C8H11CoN6O4S2 | MND = 6
 32 35 0 0 0
SMALL
GASTEIGER

@<TRIPOS>ATOM
      1 CO          1.3437    0.6621    2.7891 Co.oh   1  UNL1        0.0000
      2 S           0.3552    0.5328    4.9333 S.3     1  UNL1        0.0000
      3 O           2.4218    0.7221    1.2503 O.3     1  UNL1        0.0000
      4 O           4.5685    0.6643    0.6577 O.2     1  UNL1        0.0000
      5 N           1.8646    0.4550    7.0732 N.3     1  UNL1        0.0000
      6 N           2.9880    0.3978    5.0531 N.3     1  UNL1        0.0000
      7 N           2.9574    0.4452    3.6907 N.3     1  UNL1        0.0000
      8 C           1.8235    0.4685    5.7336 C.3     1  UNL1        0.0000
      9 C           4.0113    0.5274    2.9707 C.3     1  UNL1        0.0000
     10 C           3.6752    0.6483    1.4740 C.2     1  UNL1        0.0000
     11 C           5.4226    0.5403    3.4288 C.3     1  UNL1        0.0000
     12 S           0.8914   -1.5444    2.3561 S.3     1  UNL1        0.0000
     13 O           1.4568    2.5389    3.0427 O.3     1  UNL1        0.0000
     14 O           0.3994    4.4034    2.4531 O.2     1  UNL1        0.0000
     15 N          -1.1678   -2.1285    0.8222 N.pl3   1  UNL1        0.0000
     16 N          -0.8751    0.1055    1.2053 N.2     1  UNL1        0.0000
     17 N          -0.1530    1.0481    1.8105 N.pl3   1  UNL1        0.0000
     18 C          -0.4772   -1.1217    1.3811 C.2     1  UNL1        0.0000
     19 C          -0.4092    2.3023    1.6595 C.3     1  UNL1        0.0000
     20 C           0.5383    3.1996    2.4239 C.2     1  UNL1        0.0000
     21 C          -1.5192    2.8482    0.8429 C.3     1  UNL1        0.0000
     22 H           2.7257    0.4518    7.5928 H       1  UNL1        0.0000
     23 H           0.9930    0.5246    7.5698 H       1  UNL1        0.0000
     24 H           3.8874    0.4386    5.5265 H       1  UNL1        0.0000
     25 H           6.0533    0.5575    2.5414 H       1  UNL1        0.0000
     26 H           5.6581   -0.3462    4.0193 H       1  UNL1        0.0000
     27 H           5.6305    1.4310    4.0238 H       1  UNL1        0.0000
     28 H          -0.7775   -3.0537    0.8487 H       1  UNL1        0.0000
     29 H          -1.8857   -1.9088    0.1535 H       1  UNL1        0.0000
     30 H          -1.5652    3.9240    0.9925 H       1  UNL1        0.0000
     31 H          -2.4609    2.3792    1.1244 H       1  UNL1        0.0000
     32 H          -1.3409    2.6294   -0.2096 H       1  UNL1        0.0000
@<TRIPOS>BOND
     1    32    21    1
     2    29    15    1
     3     4    10    2
     4    15    28    1
     5    15    18    1
     6    21    30    1
     7    21    31    1
     8    21    19    1
     9    16    18    2
    10    16    17    1
    11     3    10    1
    12     3     1    1
    13    18    12    1
    14    10     9    1
    15    19    17    1
    16    19    20    1
    17    17     1    1
    18    12     1    1
    19    20    14    2
    20    20    13    1
    21    25    11    1
    22     1    13    1
    23     1     7    1
    24     1     2    1
    25     9    11    1
    26     9     7    1
    27    11    26    1
    28    11    27    1
    29     7     6    1
    30     2     8    1
    31     6    24    1
    32     6     8    1
    33     8     5    1
    34     5    23    1
    35     5    22    1
