@<TRIPOS>MOLECULE
CSD_code = ZIXWAG | q = 0 | S = 0 | Stoichiometry = C24H30CoNOP2 | MND = 6
 59 60 0 0 0
SMALL
GASTEIGER

@<TRIPOS>ATOM
      1 CO          3.2232    9.5223    7.2222 Co.oh   1  UNL1        0.0000
      2 P           4.9429    9.7467    8.6202 P.3     2  UNL2        0.0000
      3 P           3.5366   10.2257    5.0849 P.3     3  UNL3        0.0000
      4 O           4.0781    6.8498    6.4710 O.3     1  UNL1        0.0000
      5 N           0.2080    8.6942    5.0140 N.ar    1  UNL1        0.0000
      6 C           6.0048    8.2674    8.8827 C.3     2  UNL2        0.0000
      7 H           6.4181    7.9450    7.9283 H       2  UNL2        0.0000
      8 H           5.3951    7.4601    9.2855 H       2  UNL2        0.0000
      9 H           6.8173    8.4888    9.5743 H       2  UNL2        0.0000
     10 C           4.6183   10.1920   10.3667 C.3     2  UNL2        0.0000
     11 H           5.5489   10.1644   10.9335 H       2  UNL2        0.0000
     12 H           3.9069    9.4868   10.7926 H       2  UNL2        0.0000
     13 H           4.1864   11.1890   10.4122 H       2  UNL2        0.0000
     14 C           6.2402   10.9783    8.2191 C.3     2  UNL2        0.0000
     15 H           5.7900   11.9678    8.1943 H       2  UNL2        0.0000
     16 H           6.6611   10.7520    7.2413 H       2  UNL2        0.0000
     17 H           7.0263   10.9494    8.9731 H       2  UNL2        0.0000
     18 C           2.2495   11.3306    4.4034 C.3     3  UNL3        0.0000
     19 H           2.4897   11.6066    3.3768 H       3  UNL3        0.0000
     20 H           2.1600   12.2220    5.0192 H       3  UNL3        0.0000
     21 H           1.3090   10.7801    4.4330 H       3  UNL3        0.0000
     22 C           5.0877   11.0407    4.5134 C.3     3  UNL3        0.0000
     23 H           5.0129   11.2750    3.4518 H       3  UNL3        0.0000
     24 H           5.9183   10.3547    4.6746 H       3  UNL3        0.0000
     25 H           5.2766   11.9531    5.0721 H       3  UNL3        0.0000
     26 C           3.4817    8.9001    3.8154 C.3     3  UNL3        0.0000
     27 H           2.5476    8.3521    3.9115 H       3  UNL3        0.0000
     28 H           4.3101    8.2100    3.9659 H       3  UNL3        0.0000
     29 H           3.5454    9.3306    2.8162 H       3  UNL3        0.0000
     30 C           3.6815    7.8867    6.7747 C.3     1  UNL1        0.0000
     31 C          -0.2232    7.8515    4.0954 C.ar    1  UNL1        0.0000
     32 H          -0.6279    8.3103    3.2006 H       1  UNL1        0.0000
     33 C          -0.1742    6.4738    4.2304 C.ar    1  UNL1        0.0000
     34 H          -0.5366    5.8254    3.4481 H       1  UNL1        0.0000
     35 C           0.3530    5.9612    5.4090 C.ar    1  UNL1        0.0000
     36 H           0.4069    4.8927    5.5653 H       1  UNL1        0.0000
     37 C           0.8037    6.8312    6.3795 C.ar    1  UNL1        0.0000
     38 H           1.2114    6.4492    7.3022 H       1  UNL1        0.0000
     39 C           0.7281    8.2133    6.1515 C.ar    1  UNL1        0.0000
     40 C           1.1566    9.2304    7.1025 C.3     1  UNL1        0.0000
     41 H           0.7181   10.2015    6.8836 H       1  UNL1        0.0000
     42 C           1.5882    8.9874    8.4207 C.3     1  UNL1        0.0000
     43 H           1.5468    7.9773    8.8217 H       1  UNL1        0.0000
     44 C           1.4163   10.0767    9.3839 C.ar    1  UNL1        0.0000
     45 C           0.7077    9.9749   10.5569 C.ar    1  UNL1        0.0000
     46 H           0.3017    9.0233   10.8719 H       1  UNL1        0.0000
     47 C           0.4766   11.1205   11.3313 C.ar    1  UNL1        0.0000
     48 H          -0.0893   11.0289   12.2479 H       1  UNL1        0.0000
     49 C           0.9357   12.3458   10.9296 C.ar    1  UNL1        0.0000
     50 H           0.7333   13.2280   11.5216 H       1  UNL1        0.0000
     51 C           1.7004   12.4802    9.7510 C.ar    1  UNL1        0.0000
     52 C           2.2418   13.7041    9.3095 C.ar    1  UNL1        0.0000
     53 H           2.0357   14.6080    9.8660 H       1  UNL1        0.0000
     54 C           3.0285   13.7288    8.1920 C.ar    1  UNL1        0.0000
     55 H           3.4420   14.6665    7.8423 H       1  UNL1        0.0000
     56 C           3.3446   12.5494    7.4961 C.ar    1  UNL1        0.0000
     57 H           4.0054   12.6374    6.6425 H       1  UNL1        0.0000
     58 C           2.8452   11.3214    7.8696 C.ar    1  UNL1        0.0000
     59 C           1.9731   11.3184    8.9925 C.ar    1  UNL1        0.0000
@<TRIPOS>BOND
     1    29    26    1
     2    32    31    1
     3    19    18    1
     4    34    33    1
     5    23    22    1
     6    26    27    1
     7    26    28    1
     8    26     3    1
     9    31    33   ar
    10    31     5   ar
    11    33    35   ar
    12    18    21    1
    13    18    20    1
    14    18     3    1
    15    22    24    1
    16    22    25    1
    17    22     3    1
    18     5    39   ar
    19    35    36    1
    20    35    37   ar
    21    39    37   ar
    22    39    40    1
    23    37    38    1
    24     4    30    1
    25    57    56    1
    26    30     1    1
    27    41    40    1
    28    40     1    1
    29    40    42    1
    30     1    58    1
    31    16    14    1
    32    56    58   ar
    33    56    54   ar
    34    55    54    1
    35    58    59   ar
    36     7     6    1
    37    54    52   ar
    38    15    14    1
    39    14     2    1
    40    14    17    1
    41    42    43    1
    42    42    44    1
    43     2     6    1
    44     2    10    1
    45     6     8    1
    46     6     9    1
    47    59    44   ar
    48    59    51   ar
    49    52    51   ar
    50    52    53    1
    51    44    45   ar
    52    51    49   ar
    53    10    13    1
    54    10    12    1
    55    10    11    1
    56    45    46    1
    57    45    47   ar
    58    49    47   ar
    59    49    50    1
    60    47    48    1
