@<TRIPOS>MOLECULE
CSD_code = ZOBQEM | q = 1 | S = 0 | Stoichiometry = C46H46CoNO2P3(1+) | MND = 5
 99 107 0 0 0
SMALL
GASTEIGER

@<TRIPOS>ATOM
      1 CO         -0.4935    6.5279    9.5838 Co.oh   1  UNL1        0.0000
      2 P          -2.5120    6.7750   10.6331 P.3     1  UNL1        0.0000
      3 P          -1.0978    6.9273    7.3823 P.3     1  UNL1        0.0000
      4 P          -1.0990    4.4500    9.2733 P.3     1  UNL1        0.0000
      5 C          -3.8008    6.4971    9.3280 C.3     1  UNL1        0.0000
      6 H          -4.7228    6.2234    9.8515 H       1  UNL1        0.0000
      7 H          -3.9715    7.4845    8.8897 H       1  UNL1        0.0000
      8 C          -2.7471    6.1364    7.0268 C.3     1  UNL1        0.0000
      9 H          -3.3793    6.8953    6.5579 H       1  UNL1        0.0000
     10 H          -2.5645    5.3599    6.2787 H       1  UNL1        0.0000
     11 C          -2.8346    4.2250    8.6947 C.3     1  UNL1        0.0000
     12 H          -2.8500    3.4657    7.9076 H       1  UNL1        0.0000
     13 H          -3.3945    3.8312    9.5469 H       1  UNL1        0.0000
     14 C          -3.5258    5.4984    8.1906 C.3     1  UNL1        0.0000
     15 C          -4.8931    5.0799    7.6199 C.3     1  UNL1        0.0000
     16 H          -5.4692    4.5281    8.3597 H       1  UNL1        0.0000
     17 H          -4.7708    4.4425    6.7465 H       1  UNL1        0.0000
     18 H          -5.4704    5.9531    7.3235 H       1  UNL1        0.0000
     19 C          -2.3428    6.0357   13.2458 C.ar    1  UNL1        0.0000
     20 C          -2.6056    5.3202   14.3959 C.ar    1  UNL1        0.0000
     21 C          -3.5535    4.3089   14.3769 C.ar    1  UNL1        0.0000
     22 C          -4.2433    4.0367   13.2093 C.ar    1  UNL1        0.0000
     23 C          -3.9919    4.7652   12.0588 C.ar    1  UNL1        0.0000
     24 C          -3.0359    5.7721   12.0635 C.ar    1  UNL1        0.0000
     25 H          -1.5978    6.8214   13.2529 H       1  UNL1        0.0000
     26 H          -2.0715    5.5451   15.3069 H       1  UNL1        0.0000
     27 H          -3.7561    3.7388   15.2702 H       1  UNL1        0.0000
     28 H          -4.9878    3.2548   13.1920 H       1  UNL1        0.0000
     29 H          -4.5626    4.5427   11.1695 H       1  UNL1        0.0000
     30 C          -3.9286    8.6612   12.2322 C.ar    1  UNL1        0.0000
     31 C          -4.3509    9.9475   12.5230 C.ar    1  UNL1        0.0000
     32 C          -3.9532   11.0130   11.7331 C.ar    1  UNL1        0.0000
     33 C          -3.1275   10.7915   10.6420 C.ar    1  UNL1        0.0000
     34 C          -2.7004    9.5103   10.3519 C.ar    1  UNL1        0.0000
     35 C          -3.0963    8.4335   11.1425 C.ar    1  UNL1        0.0000
     36 H          -4.2500    7.8390   12.8541 H       1  UNL1        0.0000
     37 H          -4.9980   10.1160   13.3704 H       1  UNL1        0.0000
     38 H          -4.2861   12.0127   11.9660 H       1  UNL1        0.0000
     39 H          -2.8163   11.6165   10.0181 H       1  UNL1        0.0000
     40 H          -2.0517    9.3319    9.5042 H       1  UNL1        0.0000
     41 C          -0.2845    9.1863    5.9654 C.ar    1  UNL1        0.0000
     42 C          -0.3998   10.4742    5.4766 C.ar    1  UNL1        0.0000
     43 C          -1.5608   11.1994    5.6914 C.ar    1  UNL1        0.0000
     44 C          -2.6044   10.6277    6.3992 C.ar    1  UNL1        0.0000
     45 C          -2.4923    9.3378    6.8862 C.ar    1  UNL1        0.0000
     46 C          -1.3372    8.5941    6.6632 C.ar    1  UNL1        0.0000
     47 H           0.6244    8.6261    5.7890 H       1  UNL1        0.0000
     48 H           0.4185   10.9125    4.9254 H       1  UNL1        0.0000
     49 H          -1.6510   12.2041    5.3087 H       1  UNL1        0.0000
     50 H          -3.5116   11.1868    6.5737 H       1  UNL1        0.0000
     51 H          -3.3182    8.9147    7.4393 H       1  UNL1        0.0000
     52 C          -0.5269    6.0922    4.7445 C.ar    1  UNL1        0.0000
     53 C           0.2934    5.5476    3.7746 C.ar    1  UNL1        0.0000
     54 C           1.5741    5.1245    4.0972 C.ar    1  UNL1        0.0000
     55 C           2.0427    5.2601    5.3925 C.ar    1  UNL1        0.0000
     56 C           1.2211    5.8023    6.3636 C.ar    1  UNL1        0.0000
     57 C          -0.0708    6.2074    6.0549 C.ar    1  UNL1        0.0000
     58 H          -1.5160    6.4406    4.4811 H       1  UNL1        0.0000
     59 H          -0.0643    5.4573    2.7598 H       1  UNL1        0.0000
     60 H           2.2083    4.6984    3.3351 H       1  UNL1        0.0000
     61 H           3.0430    4.9435    5.6469 H       1  UNL1        0.0000
     62 H           1.5782    5.9165    7.3786 H       1  UNL1        0.0000
     63 C           1.0406    2.7958    8.7092 C.ar    1  UNL1        0.0000
     64 C           1.8785    2.0358    7.9157 C.ar    1  UNL1        0.0000
     65 C           1.5743    1.8362    6.5789 C.ar    1  UNL1        0.0000
     66 C           0.4260    2.3946    6.0444 C.ar    1  UNL1        0.0000
     67 C          -0.4090    3.1623    6.8356 C.ar    1  UNL1        0.0000
     68 C          -0.1147    3.3677    8.1787 C.ar    1  UNL1        0.0000
     69 H           1.2674    2.9276    9.7597 H       1  UNL1        0.0000
     70 H           2.7680    1.5968    8.3414 H       1  UNL1        0.0000
     71 H           2.2273    1.2429    5.9579 H       1  UNL1        0.0000
     72 H           0.1796    2.2371    5.0052 H       1  UNL1        0.0000
     73 H          -1.2927    3.5976    6.3935 H       1  UNL1        0.0000
     74 C          -0.4864    3.9040   11.9336 C.ar    1  UNL1        0.0000
     75 C          -0.4537    3.1290   13.0788 C.ar    1  UNL1        0.0000
     76 C          -1.0203    1.8663   13.0725 C.ar    1  UNL1        0.0000
     77 C          -1.6065    1.3736   11.9168 C.ar    1  UNL1        0.0000
     78 C          -1.6338    2.1425   10.7692 C.ar    1  UNL1        0.0000
     79 C          -1.0830    3.4209   10.7771 C.ar    1  UNL1        0.0000
     80 H          -0.0550    4.8973   11.9302 H       1  UNL1        0.0000
     81 H           0.0112    3.5095   13.9759 H       1  UNL1        0.0000
     82 H          -1.0005    1.2612   13.9658 H       1  UNL1        0.0000
     83 H          -2.0382    0.3841   11.9103 H       1  UNL1        0.0000
     84 H          -2.0734    1.7493    9.8628 H       1  UNL1        0.0000
     85 N           0.2053    8.1503   10.0513 N.3     1  UNL1        0.0000
     86 O           1.5555    5.7727   10.0745 O.3     1  UNL1        0.0000
     87 O           3.5396    4.9191    9.3093 O.3     1  UNL1        0.0000
     88 C           0.7491    9.0663    9.3543 C.3     1  UNL1        0.0000
     89 H           0.6790    9.0885    8.2776 H       1  UNL1        0.0000
     90 C           2.5448    5.3388    9.6823 C.3     1  UNL1        0.0000
     91 C           1.4371   10.1340   10.1348 C.3     1  UNL1        0.0000
     92 H           2.4252   10.3617    9.7370 H       1  UNL1        0.0000
     93 H           0.8442   11.0516   10.0882 H       1  UNL1        0.0000
     94 C           1.4675    9.5328   11.5453 C.3     1  UNL1        0.0000
     95 H           1.2303   10.2603   12.3167 H       1  UNL1        0.0000
     96 H           2.4520    9.1167   11.7591 H       1  UNL1        0.0000
     97 C           0.4160    8.4141   11.4711 C.3     1  UNL1        0.0000
     98 H          -0.5409    8.7323   11.8981 H       1  UNL1        0.0000
     99 H           0.7315    7.5014   11.9809 H       1  UNL1        0.0000
@<TRIPOS>BOND
     1    59    53    1
     2    60    54    1
     3    53    54   ar
     4    53    52   ar
     5    54    55   ar
     6    58    52    1
     7    52    57   ar
     8    48    42    1
     9    72    66    1
    10    49    43    1
    11    55    61    1
    12    55    56   ar
    13    42    43   ar
    14    42    41   ar
    15    43    44   ar
    16    47    41    1
    17    71    65    1
    18    41    46   ar
    19    66    65   ar
    20    66    67   ar
    21    57    56   ar
    22    57     3    1
    23    10     8    1
    24    56    62    1
    25    73    67    1
    26    44    50    1
    27    44    45   ar
    28     9     8    1
    29    65    64   ar
    30    46    45   ar
    31    46     3    1
    32    17    15    1
    33    67    68   ar
    34    45    51    1
    35     8     3    1
    36     8    14    1
    37    18    15    1
    38     3     1    1
    39    15    14    1
    40    15    16    1
    41    12    11    1
    42    64    70    1
    43    64    63   ar
    44    68    63   ar
    45    68     4    1
    46    14    11    1
    47    14     5    1
    48    89    88    1
    49    11     4    1
    50    11    13    1
    51    63    69    1
    52     7     5    1
    53     4     1    1
    54     4    79    1
    55    87    90    1
    56     5     6    1
    57     5     2    1
    58    88    85    1
    59    88    91    1
    60    40    34    1
    61     1    85    1
    62     1    86    1
    63     1     2    1
    64    90    86    1
    65    92    91    1
    66    84    78    1
    67    39    33    1
    68    85    97    1
    69    93    91    1
    70    91    94    1
    71    34    33   ar
    72    34    35   ar
    73     2    35    1
    74     2    24    1
    75    33    32   ar
    76    78    79   ar
    77    78    77   ar
    78    79    74   ar
    79    35    30   ar
    80    29    23    1
    81    97    94    1
    82    97    98    1
    83    97    99    1
    84    94    96    1
    85    94    95    1
    86    32    38    1
    87    32    31   ar
    88    83    77    1
    89    77    76   ar
    90    80    74    1
    91    74    75   ar
    92    23    24   ar
    93    23    22   ar
    94    24    19   ar
    95    30    31   ar
    96    30    36    1
    97    31    37    1
    98    76    75   ar
    99    76    82    1
   100    75    81    1
   101    28    22    1
   102    22    21   ar
   103    19    25    1
   104    19    20   ar
   105    21    20   ar
   106    21    27    1
   107    20    26    1
