@<TRIPOS>MOLECULE
CSD_code = ZOJWUS | q = 1 | S = 0 | Stoichiometry = C16H20CoN10S2(1+) | MND = 6
 49 54 0 0 0
SMALL
GASTEIGER

@<TRIPOS>ATOM
      1 CO          0.3725    8.9580    5.4553 Co.oh   1  UNL1        0.0000
      2 S          -1.6254    9.6435    6.2985 S.3     1  UNL1        0.0000
      3 S           1.3721   10.8847    6.1343 S.3     1  UNL1        0.0000
      4 N          -0.2081    9.6947    3.8748 N.pl3   1  UNL1        0.5000
      5 N           0.9341    8.2715    7.0650 N.pl3   1  UNL1        0.5000
      6 N           1.6224    8.9641    7.9794 N.2     1  UNL1        0.0000
      7 C           1.8816    8.9916    3.1942 C.2     1  UNL1        0.0000
      8 N          -1.3909   10.2990    3.7157 N.2     1  UNL1        0.0000
      9 N           0.9072    6.4159    8.4854 N.pl3   1  UNL1        0.5000
     10 H           1.2729    7.0409    9.1903 H       1  UNL1        0.0000
     11 H           0.3240    5.6693    8.8234 H       1  UNL1        0.0000
     12 N          -0.3873    7.2170    5.1856 N.pl3   1  UNL1        0.0000
     13 N           1.9595    8.5347    4.4636 N.pl3   1  UNL1        0.0000
     14 N          -3.3507   10.8928    4.7644 N.pl3   1  UNL1        0.0000
     15 H          -3.8360   10.9634    5.6461 H       1  UNL1        0.0000
     16 C           0.5568    7.0496    7.3296 C.2     1  UNL1        0.0000
     17 C          -1.5849    5.4578    4.1201 C.2     1  UNL1        0.0000
     18 H          -2.1396    5.1219    3.2599 H       1  UNL1        0.0000
     19 C          -0.1796    6.4195    6.2566 C.2     1  UNL1        0.0000
     20 C           2.9317    8.8097    2.2915 C.2     1  UNL1        0.0000
     21 H           2.8405    9.1686    1.2793 H       1  UNL1        0.0000
     22 N           0.3427   10.1808    1.6561 N.pl3   1  UNL1        0.5000
     23 H          -0.4840   10.7620    1.6544 H       1  UNL1        0.0000
     24 H           1.0946   10.4897    1.0636 H       1  UNL1        0.0000
     25 C           1.8821   10.2029    7.6524 C.2     1  UNL1        0.0000
     26 C           0.6442    9.6731    2.8856 C.2     1  UNL1        0.0000
     27 N           2.5800   10.9996    8.4621 N.pl3   1  UNL1        0.0000
     28 H           2.6667   11.9660    8.1860 H       1  UNL1        0.0000
     29 C          -2.1387   10.3384    4.7873 C.2     1  UNL1        0.0000
     30 C          -1.0707    6.7414    4.1510 C.2     1  UNL1        0.0000
     31 H          -1.2223    7.4101    3.3149 H       1  UNL1        0.0000
     32 C          -1.3719    4.6237    5.2110 C.2     1  UNL1        0.0000
     33 H          -1.7574    3.6164    5.2163 H       1  UNL1        0.0000
     34 C           4.0765    8.1626    2.7101 C.2     1  UNL1        0.0000
     35 H           4.9025    8.0159    2.0323 H       1  UNL1        0.0000
     36 C          -0.6597    5.1083    6.2892 C.2     1  UNL1        0.0000
     37 H          -0.4685    4.4855    7.1477 H       1  UNL1        0.0000
     38 C           3.0637    7.9104    4.8571 C.2     1  UNL1        0.0000
     39 H           3.0927    7.5649    5.8813 H       1  UNL1        0.0000
     40 C           4.1462    7.7061    4.0207 C.2     1  UNL1        0.0000
     41 H           5.0228    7.2009    4.3905 H       1  UNL1        0.0000
     42 C           3.0076   10.6314    9.7879 C.3     1  UNL1        0.0000
     43 H           3.9807   11.0763    9.9897 H       1  UNL1        0.0000
     44 H           3.0833    9.5482    9.8399 H       1  UNL1        0.0000
     45 H           2.2963   10.9759   10.5429 H       1  UNL1        0.0000
     46 C          -3.9049   11.5835    3.6276 C.3     1  UNL1        0.0000
     47 H          -4.9729   11.3788    3.5661 H       1  UNL1        0.0000
     48 H          -3.4114   11.2230    2.7284 H       1  UNL1        0.0000
     49 H          -3.7544   12.6631    3.7095 H       1  UNL1        0.0000
@<TRIPOS>BOND
     1    24    22    1
     2    21    20    1
     3    23    22    1
     4    22    26    1
     5    35    34    1
     6    20    34    2
     7    20     7    1
     8    34    40    1
     9    48    46    1
    10    26     7    2
    11    26     4    1
    12     7    13    1
    13    18    17    1
    14    31    30    1
    15    47    46    1
    16    46    49    1
    17    46    14    1
    18     8     4    1
    19     8    29    2
    20     4     1    1
    21    40    41    1
    22    40    38    2
    23    17    30    2
    24    17    32    1
    25    30    12    1
    26    13    38    1
    27    13     1    1
    28    14    29    1
    29    14    15    1
    30    29     2    1
    31    38    39    1
    32    12     1    1
    33    12    19    1
    34    32    33    1
    35    32    36    2
    36     1     3    1
    37     1     2    1
    38     1     5    1
    39     3    25    1
    40    19    36    1
    41    19    16    2
    42    36    37    1
    43     5    16    1
    44     5     6    1
    45    16     9    1
    46    25     6    2
    47    25    27    1
    48    28    27    1
    49    27    42    1
    50     9    11    1
    51     9    10    1
    52    42    44    1
    53    42    43    1
    54    42    45    1
