@<TRIPOS>MOLECULE
CSD_code = DOFCAE | q = 0 | S = 0 | Stoichiometry = C24H44BCoN2P2 | MND = 3
 74 77 0 0 0
SMALL
GASTEIGER

@<TRIPOS>ATOM
      1 CO        -15.6915  -25.6912   -5.7852 Co.oh   1  UNL1        0.0000
      2 P         -17.2484  -25.2757   -7.2238 P.3     1  UNL1        0.0000
      3 P         -14.1804  -25.4241   -4.2658 P.3     1  UNL1        0.0000
      4 C         -15.4956  -21.7241   -4.7691 C.ar    1  UNL1        0.0000
      5 N         -15.0723  -23.0253   -4.6575 N.ar    1  UNL1        0.0000
      6 B         -15.8637  -23.8280   -5.5141 B       1  UNL1        0.0000
      7 C         -14.9567  -26.1037   -2.6817 C.3     1  UNL1        0.0000
      8 C         -17.7720  -23.4739   -7.0636 C.3     1  UNL1        0.0000
      9 H         -17.7682  -22.9458   -8.0252 H       1  UNL1        0.0000
     10 H         -18.7788  -23.3883   -6.6350 H       1  UNL1        0.0000
     11 C         -16.5735  -21.6879   -5.6980 C.ar    1  UNL1        0.0000
     12 C         -12.3762  -25.9742   -4.4657 C.3     1  UNL1        0.0000
     13 C         -17.1970  -20.4916   -6.0006 C.ar    1  UNL1        0.0000
     14 H         -18.0168  -20.4555   -6.7040 H       1  UNL1        0.0000
     15 C         -16.3527  -25.3287   -8.8882 C.3     1  UNL1        0.0000
     16 N         -16.7883  -22.9656   -6.1513 N.ar    1  UNL1        0.0000
     17 C         -16.1795  -25.2234   -2.4078 C.3     1  UNL1        0.0000
     18 H         -16.8120  -25.6887   -1.6524 H       1  UNL1        0.0000
     19 H         -16.7590  -25.1025   -3.3245 H       1  UNL1        0.0000
     20 H         -15.8999  -24.2368   -2.0484 H       1  UNL1        0.0000
     21 C         -12.3248  -27.5005   -4.4999 C.3     1  UNL1        0.0000
     22 H         -11.3649  -27.8374   -4.8903 H       1  UNL1        0.0000
     23 H         -13.1097  -27.8888   -5.1483 H       1  UNL1        0.0000
     24 H         -12.4477  -27.9250   -3.5066 H       1  UNL1        0.0000
     25 C         -15.4714  -27.4940   -3.0622 C.3     1  UNL1        0.0000
     26 H         -16.1563  -27.8748   -2.3053 H       1  UNL1        0.0000
     27 H         -14.6621  -28.2094   -3.1787 H       1  UNL1        0.0000
     28 H         -16.0130  -27.4244   -4.0131 H       1  UNL1        0.0000
     29 C         -15.0573  -20.5633   -4.1593 C.ar    1  UNL1        0.0000
     30 H         -14.2386  -20.5822   -3.4538 H       1  UNL1        0.0000
     31 C         -13.9850  -23.5853   -3.9075 C.3     1  UNL1        0.0000
     32 H         -14.0469  -23.3539   -2.8370 H       1  UNL1        0.0000
     33 H         -13.0241  -23.2069   -4.2792 H       1  UNL1        0.0000
     34 C         -12.0156  -25.4531   -5.8617 C.3     1  UNL1        0.0000
     35 H         -11.0164  -25.7792   -6.1479 H       1  UNL1        0.0000
     36 H         -12.0425  -24.3661   -5.8995 H       1  UNL1        0.0000
     37 H         -12.7265  -25.8329   -6.5952 H       1  UNL1        0.0000
     38 C         -15.6939  -19.3713   -4.4752 C.ar    1  UNL1        0.0000
     39 H         -15.3637  -18.4547   -4.0082 H       1  UNL1        0.0000
     40 C         -18.9243  -26.1617   -7.2939 C.3     1  UNL1        0.0000
     41 C         -14.0719  -26.1616   -1.4426 C.3     1  UNL1        0.0000
     42 H         -14.6746  -26.4354   -0.5762 H       1  UNL1        0.0000
     43 H         -13.6153  -25.1944   -1.2418 H       1  UNL1        0.0000
     44 H         -13.2870  -26.9067   -1.5480 H       1  UNL1        0.0000
     45 C         -11.3798  -25.4386   -3.4419 C.3     1  UNL1        0.0000
     46 H         -10.3722  -25.7350   -3.7348 H       1  UNL1        0.0000
     47 H         -11.5683  -25.8366   -2.4501 H       1  UNL1        0.0000
     48 H         -11.4041  -24.3536   -3.3872 H       1  UNL1        0.0000
     49 C         -16.7444  -19.3361   -5.3793 C.ar    1  UNL1        0.0000
     50 H         -17.2195  -18.3925   -5.6053 H       1  UNL1        0.0000
     51 C         -17.2049  -25.1886  -10.1436 C.3     1  UNL1        0.0000
     52 H         -16.5572  -25.1021  -11.0166 H       1  UNL1        0.0000
     53 H         -17.8266  -24.2966  -10.0974 H       1  UNL1        0.0000
     54 H         -17.8436  -26.0561  -10.2911 H       1  UNL1        0.0000
     55 C         -15.5920  -26.6570   -8.8787 C.3     1  UNL1        0.0000
     56 H         -14.8419  -26.6808   -9.6685 H       1  UNL1        0.0000
     57 H         -16.2554  -27.5067   -9.0146 H       1  UNL1        0.0000
     58 H         -15.0812  -26.7666   -7.9142 H       1  UNL1        0.0000
     59 C         -19.3790  -26.1400   -5.8300 C.3     1  UNL1        0.0000
     60 H         -20.3020  -26.7052   -5.7052 H       1  UNL1        0.0000
     61 H         -19.5527  -25.1236   -5.4827 H       1  UNL1        0.0000
     62 H         -18.6124  -26.5856   -5.1962 H       1  UNL1        0.0000
     63 C         -19.9947  -25.5266   -8.1767 C.3     1  UNL1        0.0000
     64 H         -20.9371  -26.0562   -8.0337 H       1  UNL1        0.0000
     65 H         -19.7359  -25.5869   -9.2290 H       1  UNL1        0.0000
     66 H         -20.1583  -24.4827   -7.9224 H       1  UNL1        0.0000
     67 C         -18.7022  -27.6170   -7.7015 C.3     1  UNL1        0.0000
     68 H         -19.5914  -28.2091   -7.4858 H       1  UNL1        0.0000
     69 H         -17.8686  -28.0414   -7.1427 H       1  UNL1        0.0000
     70 H         -18.4937  -27.7053   -8.7650 H       1  UNL1        0.0000
     71 C         -15.3122  -24.2059   -8.8400 C.3     1  UNL1        0.0000
     72 H         -14.6064  -24.3165   -9.6628 H       1  UNL1        0.0000
     73 H         -14.7632  -24.2527   -7.8982 H       1  UNL1        0.0000
     74 H         -15.7683  -23.2229   -8.9202 H       1  UNL1        0.0000
@<TRIPOS>BOND
     1    52    51    1
     2    54    51    1
     3    51    53    1
     4    51    15    1
     5    56    55    1
     6    72    71    1
     7    65    63    1
     8    57    55    1
     9    74    71    1
    10    15    55    1
    11    15    71    1
    12    15     2    1
    13    55    58    1
    14    71    73    1
    15    70    67    1
    16    63    64    1
    17    63    66    1
    18    63    40    1
    19     9     8    1
    20    67    68    1
    21    67    40    1
    22    67    69    1
    23    40     2    1
    24    40    59    1
    25     2     8    1
    26     2     1    1
    27     8    10    1
    28     8    16    1
    29    14    13    1
    30    37    34    1
    31    16    11   ar
    32    16     6   ar
    33    35    34    1
    34    13    11   ar
    35    13    49   ar
    36    36    34    1
    37    34    12    1
    38    59    60    1
    39    59    61    1
    40    59    62    1
    41     1     6    1
    42     1     3    1
    43    11     4   ar
    44    50    49    1
    45     6     5   ar
    46    49    38   ar
    47    23    21    1
    48    22    21    1
    49     4     5   ar
    50     4    29   ar
    51     5    31    1
    52    21    12    1
    53    21    24    1
    54    38    29   ar
    55    38    39    1
    56    12     3    1
    57    12    45    1
    58    33    31    1
    59     3    31    1
    60     3     7    1
    61    29    30    1
    62    28    25    1
    63    31    32    1
    64    46    45    1
    65    45    48    1
    66    45    47    1
    67    19    17    1
    68    27    25    1
    69    25     7    1
    70    25    26    1
    71     7    17    1
    72     7    41    1
    73    17    20    1
    74    17    18    1
    75    44    41    1
    76    41    43    1
    77    41    42    1
