@<TRIPOS>MOLECULE
CSD_code = WEQTIW | q = 0 | S = 0 | Stoichiometry = C29H46CoN2O2P | MND = 6
 81 81 0 0 0
SMALL
GASTEIGER

@<TRIPOS>ATOM
      1 CO          1.7804    5.7747    6.1912 Co.oh   1  UNL1        0.0000
      2 P           0.6120    6.7822    7.7986 P.3     2  UNL2        0.0000
      3 O           2.6634    7.3509    5.6067 O.3     1  UNL1        0.0000
      4 O           0.9592    4.1695    6.8817 O.3     1  UNL1        0.0000
      5 N           0.3865    6.0218    4.7548 N.2     1  UNL1        0.0000
      6 N           3.3151    4.7879    5.5681 N.3     1  UNL1        0.0000
      7 H           3.9441    5.3826    5.0326 H       1  UNL1        0.0000
      8 C           2.2013    8.3686    4.9696 C.ar    1  UNL1        0.0000
      9 C           2.9771    9.5739    4.8826 C.ar    1  UNL1        0.0000
     10 C           2.4371   10.6662    4.2485 C.ar    1  UNL1        0.0000
     11 H           2.9949   11.5877    4.1959 H       1  UNL1        0.0000
     12 C           1.1723   10.6618    3.6432 C.ar    1  UNL1        0.0000
     13 C           0.4571    9.4943    3.6563 C.ar    1  UNL1        0.0000
     14 H          -0.5066    9.4429    3.1659 H       1  UNL1        0.0000
     15 C           0.9435    8.3439    4.2985 C.ar    1  UNL1        0.0000
     16 C           4.3800    9.6105    5.4805 C.3     1  UNL1        0.0000
     17 C           5.2337    8.5298    4.8026 C.3     1  UNL1        0.0000
     18 H           4.7926    7.5526    4.9704 H       1  UNL1        0.0000
     19 H           6.2434    8.5333    5.2093 H       1  UNL1        0.0000
     20 H           5.2885    8.7095    3.7304 H       1  UNL1        0.0000
     21 C           4.3102    9.3422    6.9894 C.3     1  UNL1        0.0000
     22 H           3.7254   10.1189    7.4791 H       1  UNL1        0.0000
     23 H           5.3110    9.3411    7.4179 H       1  UNL1        0.0000
     24 H           3.8465    8.3789    7.1765 H       1  UNL1        0.0000
     25 C           5.0822   10.9568    5.2750 C.3     1  UNL1        0.0000
     26 H           5.1894   11.1899    4.2180 H       1  UNL1        0.0000
     27 H           6.0789   10.9082    5.7099 H       1  UNL1        0.0000
     28 H           4.5428   11.7632    5.7670 H       1  UNL1        0.0000
     29 C           0.6603   11.9072    2.9814 C.3     1  UNL1        0.0000
     30 H           0.6015   12.7255    3.6990 H       1  UNL1        0.0000
     31 H          -0.3295   11.7434    2.5619 H       1  UNL1        0.0000
     32 H           1.3293   12.2168    2.1785 H       1  UNL1        0.0000
     33 C           0.1768    7.1460    4.1738 C.2     1  UNL1        0.0000
     34 H          -0.6638    7.2195    3.4722 H       1  UNL1        0.0000
     35 C          -0.4727    4.9193    4.4080 C.3     1  UNL1        0.0000
     36 H          -1.3169    5.2374    3.7848 H       1  UNL1        0.0000
     37 H          -0.8416    4.4538    5.3198 H       1  UNL1        0.0000
     38 H           0.1049    4.1685    3.8648 H       1  UNL1        0.0000
     39 C           1.7324    3.4952    7.6998 C.ar    1  UNL1        0.0000
     40 C           1.3247    2.3504    8.4244 C.ar    1  UNL1        0.0000
     41 C           2.2165    1.8265    9.3443 C.ar    1  UNL1        0.0000
     42 H           1.9320    0.9646    9.9272 H       1  UNL1        0.0000
     43 C           3.4834    2.3580    9.5794 C.ar    1  UNL1        0.0000
     44 C           3.9014    3.4357    8.8205 C.ar    1  UNL1        0.0000
     45 H           4.8922    3.8513    8.9504 H       1  UNL1        0.0000
     46 C           3.0502    3.9730    7.8695 C.ar    1  UNL1        0.0000
     47 C          -0.0428    1.7338    8.1650 C.3     1  UNL1        0.0000
     48 C          -1.1300    2.7573    8.5135 C.3     1  UNL1        0.0000
     49 H          -1.0975    2.9989    9.5747 H       1  UNL1        0.0000
     50 H          -2.1166    2.3622    8.2779 H       1  UNL1        0.0000
     51 H          -0.9673    3.6652    7.9412 H       1  UNL1        0.0000
     52 C          -0.1368    1.3766    6.6748 C.3     1  UNL1        0.0000
     53 H           0.0055    2.2676    6.0707 H       1  UNL1        0.0000
     54 H          -1.1122    0.9516    6.4445 H       1  UNL1        0.0000
     55 H           0.6294    0.6483    6.4134 H       1  UNL1        0.0000
     56 C          -0.2957    0.4627    8.9793 C.3     1  UNL1        0.0000
     57 H           0.4441   -0.3018    8.7532 H       1  UNL1        0.0000
     58 H          -1.2782    0.0663    8.7287 H       1  UNL1        0.0000
     59 H          -0.2798    0.6691   10.0471 H       1  UNL1        0.0000
     60 C           4.3690    1.7450   10.6258 C.3     1  UNL1        0.0000
     61 H           3.9459    1.8931   11.6197 H       1  UNL1        0.0000
     62 H           5.3588    2.1944   10.6055 H       1  UNL1        0.0000
     63 H           4.4721    0.6722   10.4660 H       1  UNL1        0.0000
     64 C           3.3913    5.0698    6.9596 C.3     1  UNL1        0.0000
     65 H           4.2453    5.6853    7.2465 H       1  UNL1        0.0000
     66 C           3.3576    3.4191    5.0735 C.3     1  UNL1        0.0000
     67 H           4.2911    2.9283    5.3702 H       1  UNL1        0.0000
     68 H           3.2859    3.4253    3.9861 H       1  UNL1        0.0000
     69 H           2.5257    2.8443    5.4738 H       1  UNL1        0.0000
     70 C           0.8088    6.1130    9.4941 C.3     2  UNL2        0.0000
     71 H           1.8498    6.2116    9.7956 H       2  UNL2        0.0000
     72 H           0.5516    5.0576    9.4990 H       2  UNL2        0.0000
     73 H           0.1706    6.6545   10.1911 H       2  UNL2        0.0000
     74 C          -1.2158    6.7590    7.6202 C.3     2  UNL2        0.0000
     75 H          -1.5561    5.7367    7.4828 H       2  UNL2        0.0000
     76 H          -1.4923    7.3430    6.7444 H       2  UNL2        0.0000
     77 H          -1.6866    7.1830    8.5062 H       2  UNL2        0.0000
     78 C           0.8588    8.5707    8.1387 C.3     2  UNL2        0.0000
     79 H           0.1356    8.9206    8.8745 H       2  UNL2        0.0000
     80 H           0.7458    9.1360    7.2161 H       2  UNL2        0.0000
     81 H           1.8662    8.7248    8.5168 H       2  UNL2        0.0000
@<TRIPOS>BOND
     1    32    29    1
     2    31    29    1
     3    29    12    1
     4    29    30    1
     5    14    13    1
     6    34    33    1
     7    12    13   ar
     8    12    10   ar
     9    13    15   ar
    10    20    17    1
    11    36    35    1
    12    38    35    1
    13    68    66    1
    14    33    15    1
    15    33     5    2
    16    11    10    1
    17    26    25    1
    18    10     9   ar
    19    15     8   ar
    20    35     5    1
    21    35    37    1
    22    17    18    1
    23    17    19    1
    24    17    16    1
    25     9     8   ar
    26     9    16    1
    27     8     3    1
    28     7     6    1
    29    66    67    1
    30    66    69    1
    31    66     6    1
    32    25    16    1
    33    25    27    1
    34    25    28    1
    35    16    21    1
    36     6    64    1
    37     3     1    1
    38    53    52    1
    39     1    64    1
    40    55    52    1
    41    54    52    1
    42    52    47    1
    43    76    74    1
    44     4    39    1
    45    64    65    1
    46    64    46    1
    47    21    24    1
    48    21    23    1
    49    21    22    1
    50    80    78    1
    51    75    74    1
    52    74     2    1
    53    74    77    1
    54    39    46   ar
    55    39    40   ar
    56     2    78    1
    57     2    70    1
    58    46    44   ar
    59    51    48    1
    60    78    81    1
    61    78    79    1
    62    47    40    1
    63    47    48    1
    64    47    56    1
    65    50    48    1
    66    40    41   ar
    67    48    49    1
    68    58    56    1
    69    57    56    1
    70    44    45    1
    71    44    43   ar
    72    56    59    1
    73    41    43   ar
    74    41    42    1
    75    70    72    1
    76    70    71    1
    77    70    73    1
    78    43    60    1
    79    63    60    1
    80    62    60    1
    81    60    61    1
