@<TRIPOS>MOLECULE
CSD_code = ACAQIE | q = 1 | S = 0 | Stoichiometry = C19H20CoN4O6(1+) | MND = 6
 50 54 0 0 0
SMALL
GASTEIGER

@<TRIPOS>ATOM
      1 CO          4.4008    5.1994    6.8312 Co.oh   1  UNL1        0.0000
      2 N           5.4418    3.4918    6.7643 N.4     1  UNL1        0.0000
      3 N           9.7994    1.5641    8.0977 N.am    1  UNL1        0.0000
      4 N           4.8301    5.6409    8.6517 N.pl3   1  UNL1        0.0000
      5 N           5.8579    6.3596    6.3610 N.pl3   1  UNL1        0.0000
      6 O           3.9721    4.8851    5.0711 O.3     1  UNL1        0.0000
      7 O           4.2158    3.5023    3.3616 O.2     1  UNL1        0.0000
      8 O           2.9569    4.1733    7.3285 O.3     1  UNL1        0.0000
      9 O           2.2586    2.1221    7.7784 O.2     1  UNL1        0.0000
     10 O           9.1900    3.6970    8.4844 O.2     1  UNL1        0.0000
     11 C           4.4690    3.8542    4.4807 C.2     1  UNL1        0.0000
     12 C           5.5515    3.1354    5.3316 C.3     1  UNL1        0.0000
     13 C           3.1249    2.9106    7.5175 C.2     1  UNL1        0.0000
     14 C           4.6209    2.4936    7.4850 C.3     1  UNL1        0.0000
     15 C           6.7847    3.5686    7.3681 C.3     1  UNL1        0.0000
     16 C           7.6103    2.2797    7.3515 C.3     1  UNL1        0.0000
     17 C           8.9455    2.5972    8.0384 C.2     1  UNL1        0.0000
     18 C           4.2507    5.2860    9.7852 C.2     1  UNL1        0.0000
     19 C           4.7054    5.7310   11.0297 C.2     1  UNL1        0.0000
     20 C           5.7913    6.5731   11.1052 C.2     1  UNL1        0.0000
     21 C           6.4146    6.9857    9.9146 C.ar    1  UNL1        0.0000
     22 C           7.5331    7.8675    9.8478 C.ar    1  UNL1        0.0000
     23 C           8.0671    8.2410    8.6573 C.ar    1  UNL1        0.0000
     24 C           7.5321    7.7672    7.4234 C.ar    1  UNL1        0.0000
     25 C           8.0129    8.1271    6.1524 C.2     1  UNL1        0.0000
     26 C           7.3940    7.6107    5.0368 C.2     1  UNL1        0.0000
     27 C           6.3177    6.7305    5.1788 C.2     1  UNL1        0.0000
     28 C           6.4408    6.8788    7.4640 C.ar    1  UNL1        0.0000
     29 C           5.8816    6.4878    8.7104 C.ar    1  UNL1        0.0000
     30 O           3.0758    6.7166    6.7135 O.3     2  HOH2        0.0000
     31 H          10.6958    1.7012    8.5369 H       1  UNL1        0.0000
     32 H           9.5843    0.6555    7.7269 H       1  UNL1        0.0000
     33 H           2.8692    6.7868    5.7665 H       0  HOH0        0.0000
     34 H           2.2636    6.3606    7.1108 H       0  HOH0        0.0000
     35 H           5.4772    2.0584    5.1689 H       1  UNL1        0.0000
     36 H           6.5108    3.4814    4.9379 H       1  UNL1        0.0000
     37 H           4.9358    2.4453    8.5309 H       1  UNL1        0.0000
     38 H           4.7076    1.4965    7.0488 H       1  UNL1        0.0000
     39 H           6.6929    3.8799    8.4117 H       1  UNL1        0.0000
     40 H           7.3682    4.3345    6.8509 H       1  UNL1        0.0000
     41 H           7.8094    1.9386    6.3353 H       1  UNL1        0.0000
     42 H           7.1174    1.4762    7.8995 H       1  UNL1        0.0000
     43 H           3.3973    4.6257    9.7149 H       1  UNL1        0.0000
     44 H           4.1941    5.4031   11.9204 H       1  UNL1        0.0000
     45 H           6.1624    6.9213   12.0568 H       1  UNL1        0.0000
     46 H           7.9452    8.2354   10.7745 H       1  UNL1        0.0000
     47 H           8.9115    8.9115    8.6201 H       1  UNL1        0.0000
     48 H           8.8502    8.8021    6.0640 H       1  UNL1        0.0000
     49 H           7.7272    7.8729    4.0456 H       1  UNL1        0.0000
     50 H           5.8234    6.3199    4.3091 H       1  UNL1        0.0000
@<TRIPOS>BOND
     1     7    11    2
     2    49    26    1
     3    50    27    1
     4    11     6    1
     5    11    12    1
     6    36    12    1
     7    26    27    2
     8    26    25    1
     9     6     1    1
    10    35    12    1
    11    27     5    1
    12    12     2    1
    13    33    30    1
    14    48    25    1
    15    25    24    2
    16    41    16    1
    17     5     1    1
    18     5    28    1
    19    30    34    1
    20     2     1    1
    21     2    15    1
    22     2    14    1
    23     1     8    1
    24     1     4    1
    25    40    15    1
    26    38    14    1
    27     8    13    1
    28    16    15    1
    29    16    42    1
    30    16    17    1
    31    15    39    1
    32    24    28   ar
    33    24    23   ar
    34    28    29   ar
    35    14    13    1
    36    14    37    1
    37    13     9    2
    38    32     3    1
    39    17     3   am
    40    17    10    2
    41     3    31    1
    42    47    23    1
    43     4    29    1
    44     4    18    1
    45    23    22   ar
    46    29    21   ar
    47    43    18    1
    48    18    19    2
    49    22    21   ar
    50    22    46    1
    51    21    20    2
    52    19    20    1
    53    19    44    1
    54    20    45    1
