@<TRIPOS>MOLECULE
CSD_code = FICJUY | q = 1 | S = 0 | Stoichiometry = C20H24CoN2O6(1+) | MND = 6
 53 56 0 0 0
SMALL
GASTEIGER

@<TRIPOS>ATOM
      1 CO          5.2132    5.9096    0.8814 Co.oh   1  UNL1        0.0000
      2 O           4.2460    7.3875    1.3677 O.3     1  UNL1        0.0000
      3 O           6.3772    4.2886    0.1740 O.3     1  UNL1        0.0000
      4 H           6.0352    3.4116    0.3872 H       1  UNL1        0.0000
      5 O           3.7112    5.0014    0.3560 O.3     1  UNL1        0.0000
      6 N           5.4084    6.5468   -0.8596 N.3     1  UNL1        0.0000
      7 O           6.9482    6.8616    1.6351 O.3     1  UNL1        0.0000
      8 H           7.0346    7.7977    1.4163 H       1  UNL1        0.0000
      9 O           2.0667    8.2086    2.5287 O.3     1  UNL1        0.0000
     10 N           5.0563    5.2640    2.6233 N.3     1  UNL1        0.0000
     11 O           1.4287    5.2085   -0.8768 O.3     1  UNL1        0.0000
     12 C           2.6948    4.8953    2.5211 C.ar    1  UNL1        0.0000
     13 C           1.3740    5.0696    0.4716 C.ar    1  UNL1        0.0000
     14 C           3.3189    7.8523    0.5845 C.ar    1  UNL1        0.0000
     15 C           2.1200    8.3497    1.1805 C.ar    1  UNL1        0.0000
     16 C           3.9481    4.9518    3.1953 C.3     1  UNL1        0.0000
     17 H           3.9432    4.7275    4.2623 H       1  UNL1        0.0000
     18 C           4.5681    7.3104   -1.4625 C.3     1  UNL1        0.0000
     19 H           4.6954    7.5080   -2.5273 H       1  UNL1        0.0000
     20 C           3.4464    7.9150   -0.8265 C.ar    1  UNL1        0.0000
     21 C           6.4165    4.4124   -1.2499 C.3     1  UNL1        0.0000
     22 H           5.5046    3.9955   -1.6888 H       1  UNL1        0.0000
     23 H           7.2969    3.8881   -1.6372 H       1  UNL1        0.0000
     24 C           2.6508    4.9961    1.1074 C.ar    1  UNL1        0.0000
     25 C           6.4924    5.9061   -1.5658 C.3     1  UNL1        0.0000
     26 H           7.4425    6.2978   -1.1867 H       1  UNL1        0.0000
     27 H           6.4348    6.0735   -2.6461 H       1  UNL1        0.0000
     28 C           1.1393    8.9083    0.3876 C.ar    1  UNL1        0.0000
     29 H           0.2242    9.2714    0.8273 H       1  UNL1        0.0000
     30 C           0.2240    5.0041    1.2305 C.ar    1  UNL1        0.0000
     31 H          -0.7439    5.0752    0.7605 H       1  UNL1        0.0000
     32 C           6.2891    5.3713    3.3668 C.3     1  UNL1        0.0000
     33 H           6.9834    4.6008    3.0143 H       1  UNL1        0.0000
     34 H           6.1311    5.2539    4.4436 H       1  UNL1        0.0000
     35 C           6.8836    6.7453    3.0587 C.3     1  UNL1        0.0000
     36 H           6.2315    7.5224    3.4699 H       1  UNL1        0.0000
     37 H           7.8915    6.8359    3.4781 H       1  UNL1        0.0000
     38 C           0.2892    4.8677    2.6196 C.ar    1  UNL1        0.0000
     39 H          -0.6282    4.8198    3.1846 H       1  UNL1        0.0000
     40 C           0.2171    5.3092   -1.5903 C.3     1  UNL1        0.0000
     41 H           0.5011    5.4171   -2.6352 H       1  UNL1        0.0000
     42 H          -0.3560    6.1877   -1.2794 H       1  UNL1        0.0000
     43 H          -0.3943    4.4097   -1.4728 H       1  UNL1        0.0000
     44 C           1.4996    4.8118    3.2578 C.ar    1  UNL1        0.0000
     45 H           1.5501    4.7338    4.3326 H       1  UNL1        0.0000
     46 C           2.4323    8.5102   -1.5983 C.ar    1  UNL1        0.0000
     47 H           2.5452    8.5518   -2.6704 H       1  UNL1        0.0000
     48 C           1.3010    8.9946   -0.9977 C.ar    1  UNL1        0.0000
     49 H           0.5154    9.4366   -1.5898 H       1  UNL1        0.0000
     50 C           0.9121    8.6532    3.2045 C.3     1  UNL1        0.0000
     51 H           1.0885    8.4392    4.2567 H       1  UNL1        0.0000
     52 H           0.0222    8.1117    2.8701 H       1  UNL1        0.0000
     53 H           0.7597    9.7285    3.0747 H       1  UNL1        0.0000
@<TRIPOS>BOND
     1    47    46    1
     2    27    25    1
     3    41    40    1
     4    19    18    1
     5    22    21    1
     6    23    21    1
     7    46    48   ar
     8    46    20   ar
     9    40    43    1
    10    40    42    1
    11    40    11    1
    12    49    48    1
    13    25    21    1
    14    25    26    1
    15    25     6    1
    16    18     6    1
    17    18    20    1
    18    21     3    1
    19    48    28   ar
    20    11    13    1
    21     6     1    1
    22    20    14   ar
    23     3     4    1
    24     5     1    1
    25     5    24    1
    26    28    29    1
    27    28    15   ar
    28    13    24   ar
    29    13    30   ar
    30    14    15   ar
    31    14     2    1
    32    31    30    1
    33     1     2    1
    34     1    10    1
    35    24    12   ar
    36    15     9    1
    37    30    38   ar
    38     8     7    1
    39     7    35    1
    40    12    16    1
    41    12    44   ar
    42     9    50    1
    43    38    39    1
    44    38    44   ar
    45    10    16    1
    46    10    32    1
    47    52    50    1
    48    33    32    1
    49    35    32    1
    50    35    36    1
    51    35    37    1
    52    53    50    1
    53    16    17    1
    54    50    51    1
    55    44    45    1
    56    32    34    1
