@<TRIPOS>MOLECULE
CSD_code = HEQBIR | q = 1 | S = 0 | Stoichiometry = C23H22CoN6O2(1+) | MND = 6
 54 59 0 0 0
SMALL
GASTEIGER

@<TRIPOS>ATOM
      1 CO          4.9826    9.0379    4.7907 Co.oh   1  UNL1        0.0000
      2 C           2.3630    8.8364    3.7328 C.ar    1  UNL1        0.0000
      3 O           3.6289    8.5292    3.6346 O.3     1  UNL1        0.0000
      4 C           1.4596    8.2067    2.8543 C.ar    1  UNL1        0.0000
      5 H           1.8596    7.4880    2.1551 H       1  UNL1        0.0000
      6 C           0.1174    8.4968    2.8796 C.ar    1  UNL1        0.0000
      7 H          -0.5482    7.9943    2.1944 H       1  UNL1        0.0000
      8 C          -0.3903    9.4316    3.7808 C.ar    1  UNL1        0.0000
      9 H          -1.4451    9.6540    3.7933 H       1  UNL1        0.0000
     10 C           0.4640   10.0638    4.6488 C.ar    1  UNL1        0.0000
     11 H           0.0849   10.7901    5.3524 H       1  UNL1        0.0000
     12 C           1.8418    9.7872    4.6534 C.ar    1  UNL1        0.0000
     13 C           2.6824   10.4705    5.5803 C.3     1  UNL1        0.0000
     14 H           2.2327   11.2260    6.2176 H       1  UNL1        0.0000
     15 N           3.9496   10.2572    5.7269 N.pl3   1  UNL1        0.0000
     16 N           4.6386   10.9631    6.6390 N.2     1  UNL1        0.0000
     17 C           5.8934   10.5746    6.7228 C.2     1  UNL1        0.0000
     18 O           6.3669    9.6296    5.9935 O.2     1  UNL1        0.0000
     19 N           6.6869   11.1497    7.6541 N.pl3   1  UNL1        0.0000
     20 H           6.3512   11.9706    8.1246 H       1  UNL1        0.0000
     21 H           7.6747   10.9709    7.6236 H       1  UNL1        0.0000
     22 N           4.4136    7.6175    6.0066 N.pl3   1  UNL1        0.0000
     23 C           4.0051    6.4510    5.4988 C.3     1  UNL1        0.0000
     24 H           3.9974    6.3657    4.4223 H       1  UNL1        0.0000
     25 C           3.5815    5.3946    6.2834 C.2     1  UNL1        0.0000
     26 H           3.2579    4.4795    5.8143 H       1  UNL1        0.0000
     27 C           3.5786    5.5346    7.6621 C.2     1  UNL1        0.0000
     28 H           3.2540    4.7296    8.3025 H       1  UNL1        0.0000
     29 C           4.0010    6.7425    8.1913 C.2     1  UNL1        0.0000
     30 H           4.0163    6.9123    9.2557 H       1  UNL1        0.0000
     31 C           4.4043    7.7517    7.3344 C.2     1  UNL1        0.0000
     32 H           4.7287    8.6961    7.7462 H       1  UNL1        0.0000
     33 N           5.5137   10.4677    3.5736 N.pl3   1  UNL1        0.0000
     34 C           4.6258   11.2063    2.9054 C.3     1  UNL1        0.0000
     35 H           3.5801   10.9806    3.0529 H       1  UNL1        0.0000
     36 C           4.9931   12.2274    2.0463 C.2     1  UNL1        0.0000
     37 H           4.2298   12.7913    1.5351 H       1  UNL1        0.0000
     38 C           6.3371   12.5076    1.8642 C.2     1  UNL1        0.0000
     39 H           6.6561   13.2992    1.2044 H       1  UNL1        0.0000
     40 C           7.2603   11.7420    2.5590 C.2     1  UNL1        0.0000
     41 H           8.3193   11.9169    2.4579 H       1  UNL1        0.0000
     42 C           6.8092   10.7386    3.3965 C.2     1  UNL1        0.0000
     43 H           7.5119   10.1417    3.9604 H       1  UNL1        0.0000
     44 N           6.2108    7.7623    3.8565 N.pl3   1  UNL1        0.0000
     45 C           7.2254    7.2000    4.5142 C.3     1  UNL1        0.0000
     46 H           7.3369    7.4735    5.5535 H       1  UNL1        0.0000
     47 C           8.1131    6.3231    3.9155 C.2     1  UNL1        0.0000
     48 H           8.9173    5.8961    4.4929 H       1  UNL1        0.0000
     49 C           7.9474    6.0081    2.5759 C.2     1  UNL1        0.0000
     50 H           8.6206    5.3265    2.0796 H       1  UNL1        0.0000
     51 C           6.8928    6.5920    1.8921 C.2     1  UNL1        0.0000
     52 H           6.7189    6.3802    0.8494 H       1  UNL1        0.0000
     53 C           6.0535    7.4601    2.5682 C.2     1  UNL1        0.0000
     54 H           5.2105    7.9184    2.0712 H       1  UNL1        0.0000
@<TRIPOS>BOND
     1    52    51    1
     2    39    38    1
     3    37    36    1
     4    38    36    2
     5    38    40    1
     6    51    53    2
     7    51    49    1
     8    36    34    1
     9    54    53    1
    10    50    49    1
    11     5     4    1
    12     7     6    1
    13    41    40    1
    14    40    42    2
    15    53    44    1
    16    49    47    2
    17     4     6   ar
    18     4     2   ar
    19     6     8   ar
    20    34    35    1
    21    34    33    1
    22    42    33    1
    23    42    43    1
    24    33     1    1
    25     3     2    1
    26     3     1    1
    27     2    12   ar
    28     8     9    1
    29     8    10   ar
    30    44    45    1
    31    44     1    1
    32    47    48    1
    33    47    45    1
    34    24    23    1
    35    45    46    1
    36    10    12   ar
    37    10    11    1
    38    12    13    1
    39     1    15    1
    40     1    18    1
    41     1    22    1
    42    23    22    1
    43    23    25    1
    44    13    15    1
    45    13    14    1
    46    15    16    1
    47    26    25    1
    48    18    17    1
    49    22    31    1
    50    25    27    2
    51    16    17    2
    52    17    19    1
    53    31    32    1
    54    31    29    2
    55    21    19    1
    56    19    20    1
    57    27    29    1
    58    27    28    1
    59    29    30    1
