@<TRIPOS>MOLECULE
CSD_code = HEQBEN | q = 1 | S = 0 | Stoichiometry = C29H25CoN5O2(1+) | MND = 6
 62 68 0 0 0
SMALL
GASTEIGER

@<TRIPOS>ATOM
      1 CO          2.3989   10.8915    8.7982 Co.oh   1  UNL1        0.0000
      2 C           4.5484   12.3893    9.8894 C.ar    1  UNL1        0.0000
      3 O           3.3209   11.9679    9.9990 O.3     1  UNL1        0.0000
      4 C           5.0206   13.3188   10.8398 C.ar    1  UNL1        0.0000
      5 H           4.3316   13.6468   11.6035 H       1  UNL1        0.0000
      6 C           6.3080   13.7910   10.8001 C.ar    1  UNL1        0.0000
      7 H           6.6366   14.5044   11.5404 H       1  UNL1        0.0000
      8 C           7.1957   13.3583    9.8127 C.ar    1  UNL1        0.0000
      9 H           8.2054   13.7353    9.7918 H       1  UNL1        0.0000
     10 C           6.7718   12.4528    8.8756 C.ar    1  UNL1        0.0000
     11 H           7.4472   12.1082    8.1066 H       1  UNL1        0.0000
     12 C           5.4567   11.9506    8.8824 C.ar    1  UNL1        0.0000
     13 C           5.0712   11.0106    7.8887 C.3     1  UNL1        0.0000
     14 H           5.8231   10.6728    7.1814 H       1  UNL1        0.0000
     15 N           3.8789   10.5195    7.7578 N.pl3   1  UNL1        0.0000
     16 N           3.6323    9.6385    6.7742 N.2     1  UNL1        0.0000
     17 C           2.3733    9.2807    6.7281 C.2     1  UNL1        0.0000
     18 O           1.5169    9.7700    7.5596 O.2     1  UNL1        0.0000
     19 C           1.9364    8.3351    5.6977 C.ar    1  UNL1        0.0000
     20 C           2.8534    7.7981    4.7950 C.ar    1  UNL1        0.0000
     21 H           3.8897    8.0855    4.8721 H       1  UNL1        0.0000
     22 C           2.4247    6.9139    3.8244 C.ar    1  UNL1        0.0000
     23 H           3.1342    6.4980    3.1254 H       1  UNL1        0.0000
     24 C           1.0860    6.5593    3.7448 C.ar    1  UNL1        0.0000
     25 H           0.7552    5.8700    2.9829 H       1  UNL1        0.0000
     26 C           0.1717    7.0890    4.6418 C.ar    1  UNL1        0.0000
     27 H          -0.8699    6.8123    4.5792 H       1  UNL1        0.0000
     28 C           0.5926    7.9733    5.6161 C.ar    1  UNL1        0.0000
     29 H          -0.1092    8.3951    6.3204 H       1  UNL1        0.0000
     30 N           2.7942    9.2953    9.8637 N.pl3   1  UNL1        0.0000
     31 C           3.9586    9.1231   10.4922 C.3     1  UNL1        0.0000
     32 H           4.6892    9.9142   10.4115 H       1  UNL1        0.0000
     33 C           4.2532    7.9904   11.2306 C.2     1  UNL1        0.0000
     34 H           5.2120    7.9073   11.7162 H       1  UNL1        0.0000
     35 C           3.3098    6.9808   11.3256 C.2     1  UNL1        0.0000
     36 H           3.5108    6.0826   11.8882 H       1  UNL1        0.0000
     37 C           2.1005    7.1577   10.6722 C.2     1  UNL1        0.0000
     38 H           1.3301    6.4044   10.7081 H       1  UNL1        0.0000
     39 C           1.8843    8.3226    9.9594 C.2     1  UNL1        0.0000
     40 H           0.9542    8.4711    9.4295 H       1  UNL1        0.0000
     41 N           2.0321   12.4885    7.7220 N.pl3   1  UNL1        0.0000
     42 C           2.0346   12.4907    6.3873 C.3     1  UNL1        0.0000
     43 H           2.2460   11.5593    5.8824 H       1  UNL1        0.0000
     44 C           1.7793   13.6241    5.6351 C.2     1  UNL1        0.0000
     45 H           1.7959   13.5615    4.5590 H       1  UNL1        0.0000
     46 C           1.5131   14.8191    6.2822 C.2     1  UNL1        0.0000
     47 H           1.3152   15.7213    5.7247 H       1  UNL1        0.0000
     48 C           1.5118   14.8199    7.6680 C.2     1  UNL1        0.0000
     49 H           1.3143   15.7212    8.2255 H       1  UNL1        0.0000
     50 C           1.7716   13.6422    8.3436 C.2     1  UNL1        0.0000
     51 H           1.7912   13.6276    9.4234 H       1  UNL1        0.0000
     52 N           0.7278   11.1875    9.8475 N.pl3   1  UNL1        0.0000
     53 C           0.7632   11.3928   11.1639 C.3     1  UNL1        0.0000
     54 H           1.7454   11.4461   11.6115 H       1  UNL1        0.0000
     55 C          -0.3774   11.5556   11.9303 C.2     1  UNL1        0.0000
     56 H          -0.2916   11.7206   12.9922 H       1  UNL1        0.0000
     57 C          -1.6162   11.5015   11.3113 C.2     1  UNL1        0.0000
     58 H          -2.5256   11.6214   11.8793 H       1  UNL1        0.0000
     59 C          -1.6547   11.2904    9.9420 C.2     1  UNL1        0.0000
     60 H          -2.5922   11.2423    9.4118 H       1  UNL1        0.0000
     61 C          -0.4646   11.1414    9.2517 C.2     1  UNL1        0.0000
     62 H          -0.4652   10.9673    8.1853 H       1  UNL1        0.0000
@<TRIPOS>BOND
     1    25    24    1
     2    23    22    1
     3    24    22   ar
     4    24    26   ar
     5    22    20   ar
     6    45    44    1
     7    27    26    1
     8    26    28   ar
     9    20    21    1
    10    20    19   ar
    11    28    19   ar
    12    28    29    1
    13    44    46    2
    14    44    42    1
    15    19    17    1
    16    47    46    1
    17    43    42    1
    18    46    48    1
    19    42    41    1
    20    17    16    2
    21    17    18    1
    22    16    15    1
    23    14    13    1
    24    18     1    1
    25    48    49    1
    26    48    50    2
    27    41    50    1
    28    41     1    1
    29    15    13    1
    30    15     1    1
    31    13    12    1
    32    11    10    1
    33    62    61    1
    34    50    51    1
    35     1    52    1
    36     1    30    1
    37     1     3    1
    38    10    12   ar
    39    10     8   ar
    40    12     2   ar
    41    61    52    1
    42    61    59    2
    43    60    59    1
    44    40    39    1
    45     9     8    1
    46     8     6   ar
    47    52    53    1
    48    30    39    1
    49    30    31    1
    50     2     3    1
    51     2     4   ar
    52    59    57    1
    53    39    37    2
    54    32    31    1
    55    31    33    1
    56    37    38    1
    57    37    35    1
    58     6     4   ar
    59     6     7    1
    60     4     5    1
    61    53    54    1
    62    53    55    1
    63    33    35    2
    64    33    34    1
    65    57    58    1
    66    57    55    2
    67    35    36    1
    68    55    56    1
