@<TRIPOS>MOLECULE
CSD_code = IDACCO | q = -1 | S = 0 | Stoichiometry = C8H10CoN2O8(1-) | MND = 6
 29 32 0 0 0
SMALL
GASTEIGER

@<TRIPOS>ATOM
      1 CO          4.3937    0.0913    1.5450 Co.oh   1  UNL1        0.0000
      2 C           6.7039    0.9228    2.6930 C.2     1  UNL1        0.0000
      3 C           6.9074   -0.6084    2.4708 C.3     1  UNL1        0.0000
      4 C           5.0818   -1.3312    3.9158 C.3     1  UNL1        0.0000
      5 C           3.6243   -0.7840    4.0240 C.2     1  UNL1        0.0000
      6 C           2.1615    1.0087    0.3115 C.2     1  UNL1        0.0000
      7 C           1.8255   -0.4711    0.6759 C.3     1  UNL1        0.0000
      8 C           3.5766   -1.4879   -0.6825 C.3     1  UNL1        0.0000
      9 C           5.0739   -1.0762   -0.8381 C.2     1  UNL1        0.0000
     10 H           5.6034   -2.1331    2.1060 H       1  UNL1        0.0000
     11 H           3.4481   -2.5423   -0.9437 H       1  UNL1        0.0000
     12 H           2.9913   -2.0617    1.1934 H       1  UNL1        0.0000
     13 H           7.5885   -1.0378    3.2135 H       1  UNL1        0.0000
     14 H           7.3218   -0.7356    1.4691 H       1  UNL1        0.0000
     15 H           5.6833   -0.6997    4.5741 H       1  UNL1        0.0000
     16 H           5.1253   -2.3613    4.2809 H       1  UNL1        0.0000
     17 H           1.4037   -0.4661    1.6825 H       1  UNL1        0.0000
     18 H           1.1076   -0.9074   -0.0270 H       1  UNL1        0.0000
     19 H           3.0264   -0.8784   -1.4033 H       1  UNL1        0.0000
     20 N           5.5662   -1.2058    2.5302 N.4     1  UNL1        0.0000
     21 N           3.1089   -1.1869    0.6817 N.4     1  UNL1        0.0000
     22 O           3.3042    0.0230    3.0987 O.3     1  UNL1        0.0000
     23 O           2.9140   -1.1560    4.9395 O.2     1  UNL1        0.0000
     24 O           5.5676    1.3319    2.2979 O.3     1  UNL1        0.0000
     25 O           7.5766    1.5878    3.2149 O.2     1  UNL1        0.0000
     26 O           3.3299    1.3528    0.6735 O.3     1  UNL1        0.0000
     27 O           1.3487    1.6950   -0.2755 O.2     1  UNL1        0.0000
     28 O           5.4658   -0.2162    0.0084 O.3     1  UNL1        0.0000
     29 O           5.7451   -1.5895   -1.7137 O.2     1  UNL1        0.0000
@<TRIPOS>BOND
     1    29     9    2
     2    19     8    1
     3    11     8    1
     4     9     8    1
     5     9    28    1
     6     8    21    1
     7    27     6    2
     8    18     7    1
     9    28     1    1
    10     6    26    1
    11     6     7    1
    12    26     1    1
    13     7    21    1
    14     7    17    1
    15    21    12    1
    16    21     1    1
    17    14     3    1
    18     1    24    1
    19     1    20    1
    20     1    22    1
    21    10    20    1
    22    24     2    1
    23     3    20    1
    24     3     2    1
    25     3    13    1
    26    20     4    1
    27     2    25    2
    28    22     5    1
    29     4     5    1
    30     4    16    1
    31     4    15    1
    32     5    23    2
