@<TRIPOS>MOLECULE
CSD_code = IHETUK | q = -1 | S = 0 | Stoichiometry = C18H14Cl4CoN2O6(1-) | MND = 6
 45 50 0 0 0
SMALL
GASTEIGER

@<TRIPOS>ATOM
      1 CO          5.2577   -0.8382    4.7776 Co.oh   1  UNL1        0.0000
      2 CL          3.6501   -3.6414    8.0094 Cl      1  UNL1        0.0000
      3 CL          4.4893   -7.8608    4.7994 Cl      1  UNL1        0.0000
      4 O           5.2799   -2.2243    6.0775 O.3     1  UNL1        0.0000
      5 O           3.5238   -1.4002    4.3259 O.3     1  UNL1        0.0000
      6 O           2.3787   -2.6587    2.9034 O.2     1  UNL1        0.0000
      7 N           5.8672   -1.9821    3.3289 N.4     1  UNL1        0.0000
      8 C           5.1177   -3.4652    5.7661 C.ar    1  UNL1        0.0000
      9 C           4.3553   -4.3216    6.5932 C.ar    1  UNL1        0.0000
     10 C           4.1605   -5.6572    6.3182 C.ar    1  UNL1        0.0000
     11 C           4.7301   -6.1870    5.1730 C.ar    1  UNL1        0.0000
     12 C           5.4937   -5.3993    4.3289 C.ar    1  UNL1        0.0000
     13 C           5.6995   -4.0657    4.6226 C.ar    1  UNL1        0.0000
     14 C           6.5728   -3.1947    3.7636 C.3     1  UNL1        0.0000
     15 C           4.7142   -2.2705    2.4636 C.3     1  UNL1        0.0000
     16 C           3.4016   -2.1274    3.2890 C.2     1  UNL1        0.0000
     17 H           6.5341   -1.3994    2.8209 H       1  UNL1        0.0000
     18 H           3.5656   -6.2693    6.9779 H       1  UNL1        0.0000
     19 H           5.9376   -5.8354    3.4456 H       1  UNL1        0.0000
     20 H           6.9228   -3.7641    2.8913 H       1  UNL1        0.0000
     21 H           7.4392   -2.8664    4.3494 H       1  UNL1        0.0000
     22 H           4.6534   -1.5242    1.6687 H       1  UNL1        0.0000
     23 H           4.7726   -3.2689    2.0220 H       1  UNL1        0.0000
     24 O           5.2353    0.5480    3.4777 O.3     1  UNL1        0.0000
     25 C           5.3967    1.7890    3.7890 C.ar    1  UNL1        0.0000
     26 C           6.1582    2.6459    2.9617 C.ar    1  UNL1        0.0000
     27 CL          6.8635    1.9660    1.5453 Cl      1  UNL1        0.0000
     28 C           6.3522    3.9816    3.2365 C.ar    1  UNL1        0.0000
     29 C           5.7825    4.5112    4.3818 C.ar    1  UNL1        0.0000
     30 CL          6.0223    6.1852    4.7551 Cl      1  UNL1        0.0000
     31 C           5.0197    3.7230    5.2261 C.ar    1  UNL1        0.0000
     32 C           4.8147    2.3893    4.9326 C.ar    1  UNL1        0.0000
     33 C           3.9422    1.5178    5.7919 C.3     1  UNL1        0.0000
     34 N           4.6483    0.3056    6.2264 N.4     1  UNL1        0.0000
     35 O           6.9918   -0.2764    5.2292 O.3     1  UNL1        0.0000
     36 C           7.1140    0.4513    6.2656 C.2     1  UNL1        0.0000
     37 O           8.1370    0.9826    6.6513 O.2     1  UNL1        0.0000
     38 C           5.8015    0.5943    7.0913 C.3     1  UNL1        0.0000
     39 H           3.9818   -0.2774    6.7346 H       1  UNL1        0.0000
     40 H           5.8627   -0.1519    7.8864 H       1  UNL1        0.0000
     41 H           5.7430    1.5928    7.5329 H       1  UNL1        0.0000
     42 H           3.5921    2.0871    6.6643 H       1  UNL1        0.0000
     43 H           3.0757    1.1892    5.2063 H       1  UNL1        0.0000
     44 H           4.5757    4.1590    6.1094 H       1  UNL1        0.0000
     45 H           6.9465    4.5940    2.5766 H       1  UNL1        0.0000
@<TRIPOS>BOND
     1    27    26    1
     2    22    15    1
     3    23    15    1
     4    15    16    1
     5    15     7    1
     6    45    28    1
     7    17     7    1
     8    20    14    1
     9     6    16    2
    10    26    28   ar
    11    26    25   ar
    12    28    29   ar
    13    16     5    1
    14     7    14    1
    15     7     1    1
    16    19    12    1
    17    24    25    1
    18    24     1    1
    19    14    21    1
    20    14    13    1
    21    25    32   ar
    22     5     1    1
    23    12    13   ar
    24    12    11   ar
    25    29    30    1
    26    29    31   ar
    27    13     8   ar
    28     1    35    1
    29     1     4    1
    30     1    34    1
    31     3    11    1
    32    32    31   ar
    33    32    33    1
    34    11    10   ar
    35    43    33    1
    36    31    44    1
    37    35    36    1
    38     8     4    1
    39     8     9   ar
    40    33    34    1
    41    33    42    1
    42    34    39    1
    43    34    38    1
    44    36    37    2
    45    36    38    1
    46    10     9   ar
    47    10    18    1
    48     9     2    1
    49    38    41    1
    50    38    40    1
