@<TRIPOS>MOLECULE
CSD_code = JACYOE | q = 0 | S = 0 | Stoichiometry = C30H25CoN4O8 | MND = 6
 68 75 0 0 0
SMALL
GASTEIGER

@<TRIPOS>ATOM
      1 CO          2.3793    6.1929    8.4675 Co.oh   1  UNL1        0.0000
      2 N           3.3248    5.1879    7.1852 N.3     1  UNL1        0.0000
      3 N           3.2963    5.8263    5.9884 N.3     1  UNL1        0.0000
      4 H           3.6971    5.3785    5.1697 H       1  UNL1        0.0000
      5 N           1.5251    7.2679    9.6730 N.pl3   1  UNL1        0.0000
      6 N           2.3390    8.1565   10.2696 N.2     1  UNL1        0.0000
      7 O           2.1159    7.4082    7.0294 O.3     1  UNL1        0.0000
      8 O           2.6644    4.9915    9.8079 O.3     1  UNL1        0.0000
      9 O           2.2638   10.1466    1.3363 O.3     1  UNL1        0.0000
     10 H           1.6964   10.9145    1.4805 H       1  UNL1        0.0000
     11 O           2.7479    3.6606   11.9964 O.3     1  UNL1        0.0000
     12 O           3.9127    7.1604    8.9728 O.2     1  UNL1        0.0000
     13 O           0.8677    5.2699    7.9395 O.3     1  UNL1        0.0000
     14 O           7.5263   11.4578   11.8938 O.3     1  UNL1        0.0000
     15 H           7.1553   12.0734   12.5377 H       1  UNL1        0.0000
     16 O          -0.9058    3.6497    6.9814 O.3     1  UNL1        0.0000
     17 C           2.6385    7.0073    5.9657 C.3     1  UNL1        0.0000
     18 C           2.5648    7.7893    4.7333 C.ar    1  UNL1        0.0000
     19 C           3.2400    7.4561    3.5547 C.ar    1  UNL1        0.0000
     20 H           3.8699    6.5815    3.4997 H       1  UNL1        0.0000
     21 C           3.1290    8.2502    2.4351 C.ar    1  UNL1        0.0000
     22 H           3.6479    8.0035    1.5228 H       1  UNL1        0.0000
     23 C           2.3402    9.4006    2.4605 C.ar    1  UNL1        0.0000
     24 C           1.6662    9.7415    3.6313 C.ar    1  UNL1        0.0000
     25 H           1.0550   10.6334    3.6587 H       1  UNL1        0.0000
     26 C           1.7796    8.9464    4.7496 C.ar    1  UNL1        0.0000
     27 H           1.2640    9.2008    5.6622 H       1  UNL1        0.0000
     28 C           3.8757    4.0272    7.3227 C.3     1  UNL1        0.0000
     29 H           4.3461    3.5542    6.4579 H       1  UNL1        0.0000
     30 C           3.9012    3.3333    8.5540 C.ar    1  UNL1        0.0000
     31 C           3.5751    8.0346    9.8556 C.2     1  UNL1        0.0000
     32 C           4.5957    8.9342   10.4063 C.ar    1  UNL1        0.0000
     33 C           5.9199    8.8281    9.9832 C.ar    1  UNL1        0.0000
     34 H           6.1719    8.0710    9.2567 H       1  UNL1        0.0000
     35 C           6.8883    9.6712   10.4837 C.ar    1  UNL1        0.0000
     36 H           7.9162    9.5998   10.1648 H       1  UNL1        0.0000
     37 C           6.5458   10.6405   11.4229 C.ar    1  UNL1        0.0000
     38 C           5.2258   10.7496   11.8514 C.ar    1  UNL1        0.0000
     39 H           4.9629   11.5031   12.5833 H       1  UNL1        0.0000
     40 C           4.2591    9.9039   11.3477 C.ar    1  UNL1        0.0000
     41 H           3.2339    9.9775   11.6711 H       1  UNL1        0.0000
     42 C           0.2781    7.2168   10.0124 C.3     1  UNL1        0.0000
     43 H          -0.0578    7.9161   10.7739 H       1  UNL1        0.0000
     44 C          -0.6747    6.3138    9.4635 C.ar    1  UNL1        0.0000
     45 C           3.2835    3.8722    9.7222 C.ar    1  UNL1        0.0000
     46 C           3.3602    3.0820   10.9274 C.ar    1  UNL1        0.0000
     47 C           3.9995    1.8698   10.9386 C.ar    1  UNL1        0.0000
     48 H           4.0527    1.2825   11.8419 H       1  UNL1        0.0000
     49 C           4.5982    1.3641    9.7733 C.ar    1  UNL1        0.0000
     50 H           5.0943    0.4066    9.8122 H       1  UNL1        0.0000
     51 C           4.5488    2.0768    8.6139 C.ar    1  UNL1        0.0000
     52 H           5.0070    1.6916    7.7145 H       1  UNL1        0.0000
     53 C           2.7552    2.9750   13.2209 C.3     1  UNL1        0.0000
     54 H           2.2453    2.0081   13.1457 H       1  UNL1        0.0000
     55 H           2.2147    3.6130   13.9184 H       1  UNL1        0.0000
     56 H           3.7748    2.8179   13.5903 H       1  UNL1        0.0000
     57 C          -0.3129    5.3829    8.4559 C.ar    1  UNL1        0.0000
     58 C          -1.3342    4.5103    7.9596 C.ar    1  UNL1        0.0000
     59 C          -2.6151    4.5719    8.4518 C.ar    1  UNL1        0.0000
     60 H          -3.3820    3.9100    8.0803 H       1  UNL1        0.0000
     61 C          -2.9496    5.4961    9.4484 C.ar    1  UNL1        0.0000
     62 H          -3.9626    5.5248    9.8200 H       1  UNL1        0.0000
     63 C          -2.0005    6.3474    9.9400 C.ar    1  UNL1        0.0000
     64 H          -2.2531    7.0619   10.7096 H       1  UNL1        0.0000
     65 C          -1.8230    2.7151    6.4798 C.3     1  UNL1        0.0000
     66 H          -1.2729    2.1207    5.7511 H       1  UNL1        0.0000
     67 H          -2.6686    3.2030    5.9810 H       1  UNL1        0.0000
     68 H          -2.2025    2.0562    7.2687 H       1  UNL1        0.0000
@<TRIPOS>BOND
     1     9    10    1
     2     9    23    1
     3    22    21    1
     4    21    23   ar
     5    21    19   ar
     6    23    24   ar
     7    20    19    1
     8    19    18   ar
     9    24    25    1
    10    24    26   ar
    11    18    26   ar
    12    18    17    1
    13    26    27    1
    14     4     3    1
    15    66    65    1
    16    17     3    1
    17    17     7    1
    18    67    65    1
    19     3     2    1
    20    29    28    1
    21    65    16    1
    22    65    68    1
    23    16    58    1
    24     7     1    1
    25     2    28    1
    26     2     1    1
    27    28    30    1
    28    52    51    1
    29    13    57    1
    30    13     1    1
    31    58    59   ar
    32    58    57   ar
    33    60    59    1
    34    59    61   ar
    35    57    44   ar
    36     1    12    1
    37     1     5    1
    38     1     8    1
    39    30    51   ar
    40    30    45   ar
    41    51    49   ar
    42    12    31    1
    43    34    33    1
    44    61    62    1
    45    61    63   ar
    46    44    63   ar
    47    44    42    1
    48     5    42    1
    49     5     6    1
    50    45     8    1
    51    45    46   ar
    52    49    50    1
    53    49    47   ar
    54    31     6    2
    55    31    32    1
    56    63    64    1
    57    33    32   ar
    58    33    35   ar
    59    42    43    1
    60    36    35    1
    61    32    40   ar
    62    35    37   ar
    63    46    47   ar
    64    46    11    1
    65    47    48    1
    66    40    41    1
    67    40    38   ar
    68    37    38   ar
    69    37    14    1
    70    38    39    1
    71    14    15    1
    72    11    53    1
    73    54    53    1
    74    53    56    1
    75    53    55    1
