@<TRIPOS>MOLECULE
CSD_code = MOJBUL | q = -1 | S = 0 | Stoichiometry = C24H20CoN4O10(1-) | MND = 6
 59 66 0 0 0
SMALL
GASTEIGER

@<TRIPOS>ATOM
      1 CO          5.2993   11.0566    6.7903 Co.oh   1  UNL1        0.0000
      2 C           2.7429   11.5015    2.0365 C.3     1  UNL1        0.0000
      3 H           2.6008   10.4309    1.9184 H       1  UNL1        0.0000
      4 H           2.5134   12.0116    1.1051 H       1  UNL1        0.0000
      5 H           3.7808   11.6945    2.3010 H       1  UNL1        0.0000
      6 C           9.0846    7.2317    3.4086 C.3     1  UNL1        0.0000
      7 H           9.6591    8.0771    3.0441 H       1  UNL1        0.0000
      8 H           9.7354    6.3817    3.5865 H       1  UNL1        0.0000
      9 H           8.3338    6.9613    2.6720 H       1  UNL1        0.0000
     10 C           1.8183   12.0231    3.1461 C.3     1  UNL1        0.0000
     11 C           8.3881    7.6165    4.7124 C.3     1  UNL1        0.0000
     12 C           0.3495   11.7461    2.8302 C.3     1  UNL1        0.0000
     13 H           0.1942   10.6757    2.7422 H       1  UNL1        0.0000
     14 H          -0.2637   12.1334    3.6384 H       1  UNL1        0.0000
     15 H           0.0805   12.2446    1.9046 H       1  UNL1        0.0000
     16 C           9.4013    8.0002    5.8001 C.3     1  UNL1        0.0000
     17 H          10.0103    8.8294    5.4508 H       1  UNL1        0.0000
     18 H           8.8775    8.3061    6.7035 H       1  UNL1        0.0000
     19 H          10.0322    7.1448    6.0261 H       1  UNL1        0.0000
     20 C           6.6725    9.0704    5.3986 C.2     1  UNL1        0.0000
     21 C           3.2566   11.6994    4.9942 C.2     1  UNL1        0.0000
     22 C           3.8161   12.9702    4.7118 C.2     1  UNL1        0.0000
     23 C           6.2509    8.0606    6.2961 C.2     1  UNL1        0.0000
     24 C           3.0828   13.9170    3.8946 C.2     1  UNL1        0.0000
     25 C           6.6426    6.6834    6.0620 C.2     1  UNL1        0.0000
     26 C           4.1660    9.5619    8.7247 C.ar    1  UNL1        0.0000
     27 C           6.8327   13.2576    6.5333 C.ar    1  UNL1        0.0000
     28 C           7.4734   12.3793    7.4435 C.ar    1  UNL1        0.0000
     29 C           3.8539   10.9223    8.9772 C.ar    1  UNL1        0.0000
     30 C           8.7041   12.7825    7.9898 C.ar    1  UNL1        0.0000
     31 H           9.2072   12.1250    8.6829 H       1  UNL1        0.0000
     32 C           3.0465   11.2140   10.0911 C.ar    1  UNL1        0.0000
     33 H           2.8009   12.2441   10.3001 H       1  UNL1        0.0000
     34 C           2.5796   10.1905   10.8853 C.ar    1  UNL1        0.0000
     35 H           1.9530   10.4256   11.7356 H       1  UNL1        0.0000
     36 C           9.2443   13.9998    7.6376 C.ar    1  UNL1        0.0000
     37 H          10.1926   14.2998    8.0638 H       1  UNL1        0.0000
     38 C           8.5970   14.8533    6.7454 C.ar    1  UNL1        0.0000
     39 H           9.0456   15.8025    6.4899 H       1  UNL1        0.0000
     40 C           2.8940    8.8579   10.6188 C.ar    1  UNL1        0.0000
     41 H           2.5106    8.0778   11.2605 H       1  UNL1        0.0000
     42 C           7.3890   14.4869    6.1903 C.ar    1  UNL1        0.0000
     43 H           6.8611   15.1233    5.4969 H       1  UNL1        0.0000
     44 C           3.6908    8.5379    9.5403 C.ar    1  UNL1        0.0000
     45 H           3.9543    7.5181    9.3053 H       1  UNL1        0.0000
     46 N           5.4061    8.2615    7.3259 N.pl3   1  UNL1        0.0000
     47 N           4.9635   13.4291    5.2459 N.pl3   1  UNL1        0.0000
     48 N           5.6461   12.7401    6.0559 N.pl3   1  UNL1        0.0000
     49 N           4.9819    9.4138    7.6236 N.pl3   1  UNL1        0.0000
     50 O           1.9550   13.4175    3.2712 O.3     1  UNL1        0.0000
     51 O           7.6356    6.4981    5.1203 O.3     1  UNL1        0.0000
     52 O           3.3270   15.0876    3.7471 O.2     1  UNL1        0.0000
     53 O           6.1634    5.6994    6.5661 O.2     1  UNL1        0.0000
     54 O           4.3264   11.8255    8.1766 O.3     1  UNL1        0.0000
     55 O           6.9003   11.2489    7.7233 O.3     1  UNL1        0.0000
     56 O           7.5583    8.7222    4.4152 O.2     1  UNL1        0.0000
     57 O           2.1008   11.3481    4.3563 O.2     1  UNL1        0.0000
     58 O           3.6899   10.8444    5.7916 O.2     1  UNL1        0.0000
     59 O           6.2870   10.2566    5.3601 O.2     1  UNL1        0.0000
@<TRIPOS>BOND
     1     4     2    1
     2    15    12    1
     3     3     2    1
     4     2     5    1
     5     2    10    1
     6     9     6    1
     7    13    12    1
     8    12    10    1
     9    12    14    1
    10     7     6    1
    11    10    50    1
    12    10    57    1
    13    50    24    1
    14     6     8    1
    15     6    11    1
    16    52    24    2
    17    24    22    1
    18    57    21    1
    19    56    11    1
    20    56    20    1
    21    22    21    2
    22    22    47    1
    23    11    51    1
    24    11    16    1
    25    21    58    1
    26    51    25    1
    27    47    48    1
    28    59    20    1
    29    59     1    1
    30    20    23    2
    31    17    16    1
    32    43    42    1
    33    58     1    1
    34    16    19    1
    35    16    18    1
    36    48    27    1
    37    48     1    1
    38    25    23    1
    39    25    53    2
    40    42    27   ar
    41    42    38   ar
    42    23    46    1
    43    39    38    1
    44    27    28   ar
    45    38    36   ar
    46     1    49    1
    47     1    55    1
    48     1    54    1
    49    46    49    1
    50    28    55    1
    51    28    30   ar
    52    49    26    1
    53    36    30   ar
    54    36    37    1
    55    30    31    1
    56    54    29    1
    57    26    29   ar
    58    26    44   ar
    59    29    32   ar
    60    45    44    1
    61    44    40   ar
    62    32    33    1
    63    32    34   ar
    64    40    34   ar
    65    40    41    1
    66    34    35    1
