@<TRIPOS>MOLECULE
CSD_code = NOWVIE | q = -1 | S = 0 | Stoichiometry = C22H28CoN4O8(1-) | MND = 6
 63 68 0 0 0
SMALL
GASTEIGER

@<TRIPOS>ATOM
      1 CO          7.2261   -0.0244    1.2142 Co.oh   1  UNL1        0.0000
      2 O           6.2165   -0.9013   -0.1157 O.3     1  UNL1        0.0000
      3 O           8.1449    0.8170   -0.1996 O.3     1  UNL1        0.0000
      4 O           9.0427   -5.4494   -0.1553 O.3     1  UNL1        0.0000
      5 O           5.5581    5.5907   -0.4326 O.3     1  UNL1        0.0000
      6 O           9.9858    0.7143    3.8588 O.2     1  UNL1        0.0000
      7 O           4.6051   -0.6878    4.0169 O.2     1  UNL1        0.0000
      8 O           8.2393    0.9192    2.5082 O.3     1  UNL1        0.0000
      9 O           6.2880   -0.9273    2.5920 O.3     1  UNL1        0.0000
     10 N           6.7126   -2.7232   -3.1328 N.ar    1  UNL1        0.0000
     11 N           7.4542    2.5403   -3.2353 N.ar    1  UNL1        0.0000
     12 N           8.6697   -1.2969    1.2444 N.4     1  UNL1        0.0000
     13 N           5.7873    1.2575    1.2911 N.4     1  UNL1        0.0000
     14 C           6.2435   -1.8666   -2.2523 C.ar    1  UNL1        0.0000
     15 C           7.9736    1.7076   -2.3610 C.ar    1  UNL1        0.0000
     16 C           5.1511   -0.9390   -2.6855 C.3     1  UNL1        0.0000
     17 C           9.0202    0.7486   -2.8367 C.3     1  UNL1        0.0000
     18 C           6.7375   -1.7747   -0.9189 C.ar    1  UNL1        0.0000
     19 C           7.5746    1.6683   -0.9933 C.ar    1  UNL1        0.0000
     20 C           7.7620   -2.6790   -0.5546 C.ar    1  UNL1        0.0000
     21 C           6.5896    2.5998   -0.5895 C.ar    1  UNL1        0.0000
     22 C           8.2556   -3.5647   -1.5120 C.ar    1  UNL1        0.0000
     23 C           6.0507    3.4711   -1.5388 C.ar    1  UNL1        0.0000
     24 C           9.3538   -4.5517   -1.2084 C.3     1  UNL1        0.0000
     25 C           5.0214    4.5102   -1.1796 C.3     1  UNL1        0.0000
     26 C           7.6927   -3.5428   -2.7808 C.ar    1  UNL1        0.0000
     27 C           6.5191    3.3933   -2.8427 C.ar    1  UNL1        0.0000
     28 C           8.2647   -2.6552    0.8642 C.3     1  UNL1        0.0000
     29 C           6.1767    2.6061    0.8611 C.3     1  UNL1        0.0000
     30 C           9.3061   -1.2103    2.5647 C.3     1  UNL1        0.0000
     31 C           5.2203    1.2028    2.6444 C.3     1  UNL1        0.0000
     32 C           9.2002    0.2785    3.0367 C.2     1  UNL1        0.0000
     33 C           5.3521   -0.2759    3.1478 C.2     1  UNL1        0.0000
     34 C          10.7487   -1.6974    2.5734 C.3     1  UNL1        0.0000
     35 C           3.7793    1.6892    2.7196 C.3     1  UNL1        0.0000
     36 H           4.8367   -1.1866   -3.6951 H       1  UNL1        0.0000
     37 H           4.3077   -1.0131   -2.0009 H       1  UNL1        0.0000
     38 H           5.5145    0.0885   -2.6583 H       1  UNL1        0.0000
     39 H           9.9142    0.8404   -2.2221 H       1  UNL1        0.0000
     40 H           9.2585    0.9513   -3.8767 H       1  UNL1        0.0000
     41 H           8.6506   -0.2723   -2.7387 H       1  UNL1        0.0000
     42 H           9.5832   -5.1213   -2.1219 H       1  UNL1        0.0000
     43 H          10.2686   -4.0382   -0.8943 H       1  UNL1        0.0000
     44 H           8.1392   -5.7560   -0.2869 H       1  UNL1        0.0000
     45 H           4.1880    4.0537   -0.6200 H       1  UNL1        0.0000
     46 H           4.6086    4.9553   -2.0888 H       1  UNL1        0.0000
     47 H           6.2352    5.2391    0.1560 H       1  UNL1        0.0000
     48 H           8.0454   -4.2089   -3.5589 H       1  UNL1        0.0000
     49 H           6.1263    4.0439   -3.6131 H       1  UNL1        0.0000
     50 H           9.0956   -3.3555    0.9882 H       1  UNL1        0.0000
     51 H           7.4525   -2.9475    1.5405 H       1  UNL1        0.0000
     52 H           7.0290    2.9024    1.4854 H       1  UNL1        0.0000
     53 H           5.3476    3.3018    1.0318 H       1  UNL1        0.0000
     54 H           9.3470   -0.9637    0.5505 H       1  UNL1        0.0000
     55 H           5.0752    0.9106    0.6401 H       1  UNL1        0.0000
     56 H           8.6976   -1.7878    3.2700 H       1  UNL1        0.0000
     57 H           5.8656    1.7942    3.3044 H       1  UNL1        0.0000
     58 H          11.3053   -1.2400    1.7559 H       1  UNL1        0.0000
     59 H          10.8171   -2.7806    2.4898 H       1  UNL1        0.0000
     60 H          11.2070   -1.3833    3.5084 H       1  UNL1        0.0000
     61 H           3.1862    1.2341    1.9269 H       1  UNL1        0.0000
     62 H           3.3655    1.3701    3.6736 H       1  UNL1        0.0000
     63 H           3.7022    2.7729    2.6453 H       1  UNL1        0.0000
@<TRIPOS>BOND
     1    40    17    1
     2    36    16    1
     3    49    27    1
     4    48    26    1
     5    11    27   ar
     6    11    15   ar
     7    10    26   ar
     8    10    14   ar
     9    27    23   ar
    10    17    41    1
    11    17    15    1
    12    17    39    1
    13    26    22   ar
    14    16    38    1
    15    16    14    1
    16    16    37    1
    17    15    19   ar
    18    14    18   ar
    19    42    24    1
    20    46    25    1
    21    23    25    1
    22    23    21   ar
    23    22    24    1
    24    22    20   ar
    25    24    43    1
    26    24     4    1
    27    25    45    1
    28    25     5    1
    29    19    21   ar
    30    19     3    1
    31    18    20   ar
    32    18     2    1
    33    21    29    1
    34    20    28    1
    35     5    47    1
    36    44     4    1
    37     3     1    1
    38     2     1    1
    39    54    12    1
    40    55    13    1
    41    29    53    1
    42    29    13    1
    43    29    52    1
    44    28    50    1
    45    28    12    1
    46    28    51    1
    47     1    12    1
    48     1    13    1
    49     1     8    1
    50     1     9    1
    51    12    30    1
    52    13    31    1
    53    58    34    1
    54    61    35    1
    55    59    34    1
    56     8    32    1
    57    30    34    1
    58    30    32    1
    59    30    56    1
    60    34    60    1
    61     9    33    1
    62    31    35    1
    63    31    33    1
    64    31    57    1
    65    63    35    1
    66    35    62    1
    67    32     6    2
    68    33     7    2
