@<TRIPOS>MOLECULE
CSD_code = POYMAS | q = 0 | S = 0 | Stoichiometry = C18H19CoN2O4 | MND = 6
 44 48 0 0 0
SMALL
GASTEIGER

@<TRIPOS>ATOM
      1 CO         -1.2735    5.0074    6.5370 Co.oh   1  UNL1        0.0000
      2 N          -0.7440    6.1161    5.1505 N.3     1  UNL1        0.0000
      3 N          -1.8016    3.8037    7.8373 N.3     1  UNL1        0.0000
      4 O          -0.2061    5.7946    7.7960 O.3     1  UNL1        0.0000
      5 O          -2.4438    4.0285    5.0004 O.3     1  UNL1        0.0000
      6 H          -2.3151    3.0744    5.0620 H       1  UNL1        0.0000
      7 O          -2.7103    6.1943    6.8497 O.3     1  UNL1        0.0000
      8 O           0.0498    3.7621    6.0732 O.3     1  UNL1        0.0000
      9 C           0.7487    6.6251    7.5658 C.ar    1  UNL1        0.0000
     10 C           1.5829    6.9866    8.6558 C.ar    1  UNL1        0.0000
     11 H           1.3686    6.5337    9.6118 H       1  UNL1        0.0000
     12 C           2.6128    7.8760    8.5100 C.ar    1  UNL1        0.0000
     13 H           3.2266    8.1269    9.3633 H       1  UNL1        0.0000
     14 C           2.8833    8.4633    7.2700 C.ar    1  UNL1        0.0000
     15 H           3.7004    9.1607    7.1677 H       1  UNL1        0.0000
     16 C           2.0973    8.1431    6.1948 C.ar    1  UNL1        0.0000
     17 H           2.2902    8.5913    5.2297 H       1  UNL1        0.0000
     18 C           1.0291    7.2355    6.3074 C.ar    1  UNL1        0.0000
     19 C           0.2291    6.9538    5.1680 C.3     1  UNL1        0.0000
     20 H           0.4652    7.5106    4.2574 H       1  UNL1        0.0000
     21 C          -1.5533    5.9650    3.9658 C.3     1  UNL1        0.0000
     22 H          -2.4993    6.4932    4.1331 H       1  UNL1        0.0000
     23 H          -1.0571    6.3710    3.0759 H       1  UNL1        0.0000
     24 C          -1.8522    4.4805    3.7854 C.3     1  UNL1        0.0000
     25 H          -0.9137    3.9473    3.6017 H       1  UNL1        0.0000
     26 H          -2.5524    4.3162    2.9560 H       1  UNL1        0.0000
     27 C          -3.7186    5.9849    7.6143 C.ar    1  UNL1        0.0000
     28 C          -4.7713    6.9390    7.6231 C.ar    1  UNL1        0.0000
     29 H          -4.6597    7.7996    6.9805 H       1  UNL1        0.0000
     30 C          -5.8770    6.7883    8.4136 C.ar    1  UNL1        0.0000
     31 H          -6.6556    7.5380    8.3949 H       1  UNL1        0.0000
     32 C          -6.0131    5.6756    9.2512 C.ar    1  UNL1        0.0000
     33 H          -6.8896    5.5689    9.8719 H       1  UNL1        0.0000
     34 C          -5.0205    4.7331    9.2745 C.ar    1  UNL1        0.0000
     35 H          -5.1086    3.8693    9.9201 H       1  UNL1        0.0000
     36 C          -3.8702    4.8509    8.4728 C.ar    1  UNL1        0.0000
     37 C          -2.8652    3.8510    8.5606 C.3     1  UNL1        0.0000
     38 H          -3.0204    3.0697    9.3096 H       1  UNL1        0.0000
     39 C          -0.7760    2.8194    8.1091 C.3     1  UNL1        0.0000
     40 H          -0.0757    3.2628    8.8248 H       1  UNL1        0.0000
     41 H          -1.1957    1.8979    8.5314 H       1  UNL1        0.0000
     42 C          -0.0399    2.5849    6.7807 C.3     1  UNL1        0.0000
     43 H          -0.5903    1.8101    6.1997 H       1  UNL1        0.0000
     44 H           0.9706    2.1910    6.9761 H       1  UNL1        0.0000
@<TRIPOS>BOND
     1    26    24    1
     2    23    21    1
     3    25    24    1
     4    24    21    1
     5    24     5    1
     6    21    22    1
     7    21     2    1
     8    20    19    1
     9     5     6    1
    10     2    19    1
    11     2     1    1
    12    19    18    1
    13    17    16    1
    14     8     1    1
    15     8    42    1
    16    16    18   ar
    17    16    14   ar
    18    43    42    1
    19    18     9   ar
    20     1     7    1
    21     1     4    1
    22     1     3    1
    23    42    44    1
    24    42    39    1
    25     7    27    1
    26    29    28    1
    27    15    14    1
    28    14    12   ar
    29     9     4    1
    30     9    10   ar
    31    27    28   ar
    32    27    36   ar
    33    28    30   ar
    34     3    39    1
    35     3    37    1
    36    39    41    1
    37    39    40    1
    38    31    30    1
    39    30    32   ar
    40    36    37    1
    41    36    34   ar
    42    12    10   ar
    43    12    13    1
    44    37    38    1
    45    10    11    1
    46    32    34   ar
    47    32    33    1
    48    34    35    1
