@<TRIPOS>MOLECULE
CSD_code = QEKHET | q = 1 | S = 0 | Stoichiometry = C56H80CoN2O4(1+) | MND = 6
 143 150 0 0 0
SMALL
GASTEIGER

@<TRIPOS>ATOM
      1 CO         19.5771   19.5770   11.5995 Co.oh   1  UNL1        0.0000
      2 O          18.5287   18.7422   12.8944 O.3     1  UNL1        0.0000
      3 N          18.3026   20.8515   11.5995 N.pl3   1  UNL1        0.0000
      4 C          17.1742   20.5149   12.2489 C.ar    1  UNL1        0.0000
      5 C          17.3710   19.2909   12.9858 C.ar    1  UNL1        0.0000
      6 C          16.3026   18.7785   13.7759 C.ar    1  UNL1        0.0000
      7 C          15.1199   19.4720   13.7475 C.ar    1  UNL1        0.0000
      8 C          14.8854   20.6333   12.9666 C.ar    1  UNL1        0.0000
      9 C          15.9169   21.1479   12.2266 C.ar    1  UNL1        0.0000
     10 C          16.5112   17.5024   14.5736 C.3     1  UNL1        0.0000
     11 C          16.8426   16.3636   13.5983 C.3     1  UNL1        0.0000
     12 C          15.2723   17.1056   15.3796 C.3     1  UNL1        0.0000
     13 C          17.6783   17.7151   15.5476 C.3     1  UNL1        0.0000
     14 C          13.4933   21.2388   12.9691 C.3     1  UNL1        0.0000
     15 C          13.1156   21.6233   14.4072 C.3     1  UNL1        0.0000
     16 C          12.4998   20.2011   12.4266 C.3     1  UNL1        0.0000
     17 C          13.3997   22.4956   12.0996 C.3     1  UNL1        0.0000
     18 H          14.2962   19.0977   14.3307 H       1  UNL1        0.0000
     19 H          15.7658   21.9872   11.5733 H       1  UNL1        0.0000
     20 H          16.0202   16.2144   12.9017 H       1  UNL1        0.0000
     21 H          17.0018   15.4398   14.1489 H       1  UNL1        0.0000
     22 H          17.7430   16.5878   13.0328 H       1  UNL1        0.0000
     23 H          14.4242   16.9052   14.7289 H       1  UNL1        0.0000
     24 H          15.0043   17.8789   16.0956 H       1  UNL1        0.0000
     25 H          15.4857   16.1964   15.9361 H       1  UNL1        0.0000
     26 H          18.5906   17.9539   15.0085 H       1  UNL1        0.0000
     27 H          17.8457   16.8113   16.1281 H       1  UNL1        0.0000
     28 H          17.4547   18.5296   16.2334 H       1  UNL1        0.0000
     29 H          12.1363   22.0949   14.4159 H       1  UNL1        0.0000
     30 H          13.8394   22.3263   14.8136 H       1  UNL1        0.0000
     31 H          13.0759   20.7567   15.0604 H       1  UNL1        0.0000
     32 H          12.7741   19.9087   11.4153 H       1  UNL1        0.0000
     33 H          11.4997   20.6261   12.4027 H       1  UNL1        0.0000
     34 H          12.4729   19.3087   13.0450 H       1  UNL1        0.0000
     35 H          13.6182   22.2720   11.0579 H       1  UNL1        0.0000
     36 H          14.0763   23.2698   12.4545 H       1  UNL1        0.0000
     37 H          12.3883   22.8912   12.1479 H       1  UNL1        0.0000
     38 O          20.6254   20.4118   12.8943 O.3     1  UNL1        0.0000
     39 C          21.7830   19.8632   12.9859 C.ar    1  UNL1        0.0000
     40 C          21.9798   18.6390   12.2489 C.ar    1  UNL1        0.0000
     41 N          20.8514   18.3026   11.5996 N.pl3   1  UNL1        0.0000
     42 O          18.7422   18.5287   10.3047 O.3     1  UNL1        0.0000
     43 C          19.2909   17.3709   10.2132 C.ar    1  UNL1        0.0000
     44 C          20.5149   17.1742   10.9501 C.ar    1  UNL1        0.0000
     45 C          21.1480   15.9169   10.9723 C.ar    1  UNL1        0.0000
     46 C          20.6334   14.8855   10.2323 C.ar    1  UNL1        0.0000
     47 C          19.4720   15.1198    9.4515 C.ar    1  UNL1        0.0000
     48 C          18.7785   16.3025    9.4232 C.ar    1  UNL1        0.0000
     49 C          17.5023   16.5111    8.6254 C.3     1  UNL1        0.0000
     50 C          16.3636   16.8425    9.6008 C.3     1  UNL1        0.0000
     51 H          16.2144   16.0201   10.2974 H       1  UNL1        0.0000
     52 H          15.4397   17.0017    9.0502 H       1  UNL1        0.0000
     53 H          16.5877   17.7429   10.1662 H       1  UNL1        0.0000
     54 C          17.1056   15.2723    7.8194 C.3     1  UNL1        0.0000
     55 H          16.9051   14.4243    8.4701 H       1  UNL1        0.0000
     56 H          17.8789   15.0043    7.1035 H       1  UNL1        0.0000
     57 H          16.1963   15.4857    7.2628 H       1  UNL1        0.0000
     58 C          17.7150   17.6782    7.6514 C.3     1  UNL1        0.0000
     59 H          17.9538   18.5905    8.1905 H       1  UNL1        0.0000
     60 H          16.8113   17.8456    7.0709 H       1  UNL1        0.0000
     61 H          18.5296   17.4547    6.9656 H       1  UNL1        0.0000
     62 H          19.0977   14.2961    8.8683 H       1  UNL1        0.0000
     63 C          21.2388   13.4933   10.2299 C.3     1  UNL1        0.0000
     64 C          21.6232   13.1157    8.7917 C.3     1  UNL1        0.0000
     65 H          22.0950   12.1365    8.7831 H       1  UNL1        0.0000
     66 H          22.3261   13.8396    8.3853 H       1  UNL1        0.0000
     67 H          20.7566   13.0758    8.1385 H       1  UNL1        0.0000
     68 C          20.2012   12.4997   10.7724 C.3     1  UNL1        0.0000
     69 H          19.9089   12.7739   11.7836 H       1  UNL1        0.0000
     70 H          20.6260   11.4996   10.7961 H       1  UNL1        0.0000
     71 H          19.3087   12.4729   10.1540 H       1  UNL1        0.0000
     72 C          22.4957   13.3995   11.0995 C.3     1  UNL1        0.0000
     73 H          22.2720   13.6181   12.1411 H       1  UNL1        0.0000
     74 H          23.2699   14.0762   10.7445 H       1  UNL1        0.0000
     75 H          22.8912   12.3881   11.0512 H       1  UNL1        0.0000
     76 H          21.9872   15.7657   11.6256 H       1  UNL1        0.0000
     77 O          20.4118   20.6254   10.3047 O.3     1  UNL1        0.0000
     78 C          19.8632   21.7830   10.2132 C.ar    1  UNL1        0.0000
     79 C          18.6391   21.9798   10.9501 C.ar    1  UNL1        0.0000
     80 C          18.0059   23.2371   10.9723 C.ar    1  UNL1        0.0000
     81 C          18.5205   24.2685   10.2322 C.ar    1  UNL1        0.0000
     82 C          19.6822   24.0342    9.4517 C.ar    1  UNL1        0.0000
     83 C          20.3757   22.8516    9.4233 C.ar    1  UNL1        0.0000
     84 C          21.6517   22.6429    8.6253 C.3     1  UNL1        0.0000
     85 C          22.7903   22.3113    9.6007 C.3     1  UNL1        0.0000
     86 H          22.9396   23.1338   10.2972 H       1  UNL1        0.0000
     87 H          23.7142   22.1522    9.0501 H       1  UNL1        0.0000
     88 H          22.5663   21.4110   10.1663 H       1  UNL1        0.0000
     89 C          22.0484   23.8817    7.8192 C.3     1  UNL1        0.0000
     90 H          22.2489   24.7297    8.4699 H       1  UNL1        0.0000
     91 H          21.2751   24.1498    7.1033 H       1  UNL1        0.0000
     92 H          22.9576   23.6683    7.2626 H       1  UNL1        0.0000
     93 C          21.4391   21.4758    7.6514 C.3     1  UNL1        0.0000
     94 H          21.2002   20.5635    8.1904 H       1  UNL1        0.0000
     95 H          22.3428   21.3084    7.0708 H       1  UNL1        0.0000
     96 H          20.6245   21.6994    6.9656 H       1  UNL1        0.0000
     97 H          20.0562   24.8579    8.8682 H       1  UNL1        0.0000
     98 C          17.9151   25.6607   10.2299 C.3     1  UNL1        0.0000
     99 C          17.5309   26.0382    8.7917 C.3     1  UNL1        0.0000
    100 H          17.0591   27.0174    8.7832 H       1  UNL1        0.0000
    101 H          16.8279   25.3144    8.3853 H       1  UNL1        0.0000
    102 H          18.3974   26.0782    8.1385 H       1  UNL1        0.0000
    103 C          18.9528   26.6542   10.7725 C.3     1  UNL1        0.0000
    104 H          19.2451   26.3800   11.7837 H       1  UNL1        0.0000
    105 H          18.5279   27.6544   10.7962 H       1  UNL1        0.0000
    106 H          19.8452   26.6810   10.1540 H       1  UNL1        0.0000
    107 C          16.6584   25.7544   11.0997 C.3     1  UNL1        0.0000
    108 H          16.8820   25.5357   12.1413 H       1  UNL1        0.0000
    109 H          15.8842   25.0778   10.7446 H       1  UNL1        0.0000
    110 H          16.2629   26.7658   11.0515 H       1  UNL1        0.0000
    111 H          17.1668   23.3883   11.6257 H       1  UNL1        0.0000
    112 C          23.2371   18.0060   12.2267 C.ar    1  UNL1        0.0000
    113 C          24.2685   18.5206   12.9666 C.ar    1  UNL1        0.0000
    114 C          24.0342   19.6822   13.7473 C.ar    1  UNL1        0.0000
    115 C          22.8516   20.3756   13.7758 C.ar    1  UNL1        0.0000
    116 C          22.6429   21.6517   14.5737 C.3     1  UNL1        0.0000
    117 C          22.3112   22.7903   13.5983 C.3     1  UNL1        0.0000
    118 H          23.1338   22.9395   12.9018 H       1  UNL1        0.0000
    119 H          22.1521   23.7141   14.1489 H       1  UNL1        0.0000
    120 H          21.4109   22.5663   13.0326 H       1  UNL1        0.0000
    121 C          23.8818   22.0484   15.3797 C.3     1  UNL1        0.0000
    122 H          24.7298   22.2489   14.7290 H       1  UNL1        0.0000
    123 H          24.1499   21.2751   16.0957 H       1  UNL1        0.0000
    124 H          23.6683   22.9576   15.9362 H       1  UNL1        0.0000
    125 C          21.4757   21.4391   15.5476 C.3     1  UNL1        0.0000
    126 H          20.5634   21.2002   15.0086 H       1  UNL1        0.0000
    127 H          21.3083   22.3428   16.1281 H       1  UNL1        0.0000
    128 H          21.6994   20.6246   16.2333 H       1  UNL1        0.0000
    129 H          24.8578   20.0562   14.3309 H       1  UNL1        0.0000
    130 C          25.6606   17.9151   12.9692 C.3     1  UNL1        0.0000
    131 C          26.0383   17.5308   14.4074 C.3     1  UNL1        0.0000
    132 H          27.0176   17.0592   14.4160 H       1  UNL1        0.0000
    133 H          25.3145   16.8278   14.8137 H       1  UNL1        0.0000
    134 H          26.0780   18.3974   15.0605 H       1  UNL1        0.0000
    135 C          26.6541   18.9528   12.4266 C.3     1  UNL1        0.0000
    136 H          26.3799   19.2452   11.4153 H       1  UNL1        0.0000
    137 H          27.6542   18.5278   12.4028 H       1  UNL1        0.0000
    138 H          26.6810   19.8452   13.0450 H       1  UNL1        0.0000
    139 C          25.7543   16.6584   12.0995 C.3     1  UNL1        0.0000
    140 H          25.5357   16.8820   11.0578 H       1  UNL1        0.0000
    141 H          25.0776   15.8842   12.4545 H       1  UNL1        0.0000
    142 H          26.7657   16.2628   12.1478 H       1  UNL1        0.0000
    143 H          23.3883   17.1668   11.5733 H       1  UNL1        0.0000
@<TRIPOS>BOND
     1    61    58    1
     2    96    93    1
     3    95    93    1
     4    60    58    1
     5    91    89    1
     6    56    54    1
     7    92    89    1
     8    57    54    1
     9    93    94    1
    10    93    84    1
    11    58    59    1
    12    58    49    1
    13    89    90    1
    14    89    84    1
    15    54    55    1
    16    54    49    1
    17   102    99    1
    18    67    64    1
    19    66    64    1
    20   101    99    1
    21    84    83    1
    22    84    85    1
    23    49    48    1
    24    49    50    1
    25    65    64    1
    26   100    99    1
    27    99    98    1
    28    64    63    1
    29    97    82    1
    30    62    47    1
    31    87    85    1
    32    52    50    1
    33    48    47   ar
    34    48    43   ar
    35    83    82   ar
    36    83    78   ar
    37    47    46   ar
    38    82    81   ar
    39    85    88    1
    40    85    86    1
    41    50    53    1
    42    50    51    1
    43    71    68    1
    44   106   103    1
    45    78    77    1
    46    78    79   ar
    47    43    42    1
    48    43    44   ar
    49    63    46    1
    50    63    68    1
    51    63    72    1
    52    98    81    1
    53    98   103    1
    54    98   107    1
    55    81    80   ar
    56    46    45   ar
    57    42     1    1
    58    77     1    1
    59    74    72    1
    60   109   107    1
    61    68    70    1
    62    68    69    1
    63   103   105    1
    64   103   104    1
    65    44    45   ar
    66    44    41    1
    67    79    80   ar
    68    79     3    1
    69    80   111    1
    70    45    76    1
    71    75    72    1
    72   110   107    1
    73   140   139    1
    74    35    17    1
    75    72    73    1
    76   107   108    1
    77   136   135    1
    78    32    16    1
    79    19     9    1
    80   143   112    1
    81     1     3    1
    82     1    41    1
    83     1    38    1
    84     1     2    1
    85     3     4    1
    86    41    40    1
    87   139   142    1
    88   139   141    1
    89   139   130    1
    90    17    37    1
    91    17    36    1
    92    17    14    1
    93     9     4   ar
    94     9     8   ar
    95   112    40   ar
    96   112   113   ar
    97    40    39   ar
    98     4     5   ar
    99    33    16    1
   100   137   135    1
   101   135   130    1
   102   135   138    1
   103    16    14    1
   104    16    34    1
   105    38    39    1
   106     2     5    1
   107    20    11    1
   108   118   117    1
   109     8    14    1
   110     8     7   ar
   111   113   130    1
   112   113   114   ar
   113    14    15    1
   114   130   131    1
   115     5     6   ar
   116    39   115   ar
   117   120   117    1
   118    22    11    1
   119   117   119    1
   120   117   116    1
   121    11    21    1
   122    11    10    1
   123   114   115   ar
   124   114   129    1
   125     7     6   ar
   126     7    18    1
   127   115   116    1
   128     6    10    1
   129    15    29    1
   130    15    30    1
   131    15    31    1
   132   131   132    1
   133   131   133    1
   134   131   134    1
   135    10    12    1
   136    10    13    1
   137   116   121    1
   138   116   125    1
   139    23    12    1
   140   122   121    1
   141    26    13    1
   142   126   125    1
   143    12    25    1
   144    12    24    1
   145   121   124    1
   146   121   123    1
   147   125   127    1
   148   125   128    1
   149    13    27    1
   150    13    28    1
