@<TRIPOS>MOLECULE
CSD_code = RIRVOE | q = 0 | S = 0 | Stoichiometry = C16H13CoN6O4 | MND = 6
 40 45 0 0 0
SMALL
GASTEIGER

@<TRIPOS>ATOM
      1 CO         -0.6562   11.2989    8.7430 Co.oh   1  UNL1        0.0000
      2 C          -2.2294   12.2647    6.4683 C.2     1  UNL1        0.0000
      3 H          -2.7658   11.3272    6.5175 H       1  UNL1        0.0000
      4 C          -2.5751   13.2500    5.5405 C.2     1  UNL1        0.0000
      5 H          -3.3862   13.0608    4.8557 H       1  UNL1        0.0000
      6 C          -1.8939   14.4472    5.5121 C.2     1  UNL1        0.0000
      7 H          -2.1519   15.2215    4.8056 H       1  UNL1        0.0000
      8 C          -0.8581   14.6556    6.4377 C.ar    1  UNL1        0.0000
      9 C          -0.0831   15.8476    6.5490 C.ar    1  UNL1        0.0000
     10 H          -0.2883   16.6521    5.8586 H       1  UNL1        0.0000
     11 C           0.8787   15.9819    7.4980 C.ar    1  UNL1        0.0000
     12 H           1.4504   16.8947    7.5736 H       1  UNL1        0.0000
     13 C           1.1571   14.9381    8.4292 C.ar    1  UNL1        0.0000
     14 C           2.1041   15.0080    9.4645 C.2     1  UNL1        0.0000
     15 H           2.6972   15.9005    9.5955 H       1  UNL1        0.0000
     16 C           2.2416   13.9279   10.3084 C.2     1  UNL1        0.0000
     17 H           2.9467   13.9513   11.1239 H       1  UNL1        0.0000
     18 C           1.4570   12.7862   10.1265 C.2     1  UNL1        0.0000
     19 H           1.5338   11.9379   10.7931 H       1  UNL1        0.0000
     20 C           0.4189   13.7447    8.3241 C.ar    1  UNL1        0.0000
     21 C          -0.5833   13.6032    7.3308 C.ar    1  UNL1        0.0000
     22 C           0.6556    9.1931   10.2426 C.2     1  UNL1        0.0000
     23 C           0.6291    8.2164    9.0421 C.3     1  UNL1        0.0000
     24 H          -0.0001    7.3713    9.3303 H       1  UNL1        0.0000
     25 H           1.6490    7.8376    8.9268 H       1  UNL1        0.0000
     26 C           0.1145    8.8053    7.7315 C.3     1  UNL1        0.0000
     27 H           0.3985    8.1497    6.8975 H       1  UNL1        0.0000
     28 C          -1.4395    8.8933    7.7793 C.2     1  UNL1        0.0000
     29 N          -1.2463   12.4266    7.3366 N.pl3   1  UNL1        0.0000
     30 N           0.5744   12.6866    9.1481 N.pl3   1  UNL1        0.0000
     31 N          -1.8845   12.1301    9.8490 N.2     1  UNL1        0.0000
     32 N          -2.5569   11.5760   10.6394 N.2     1  UNL1        0.0000
     33 N          -3.2790   11.2377   11.4389 N.2     1  UNL1        0.0000
     34 N           0.6392   10.1777    7.5418 N.4     1  UNL1        0.0000
     35 H           0.6015   10.4134    6.5506 H       1  UNL1        0.0000
     36 H           1.6200   10.1957    7.8234 H       1  UNL1        0.0000
     37 O           0.0187   10.3026   10.1737 O.3     1  UNL1        0.0000
     38 O           1.3198    8.8864   11.2137 O.2     1  UNL1        0.0000
     39 O          -1.8818    9.9889    8.2660 O.3     1  UNL1        0.0000
     40 O          -2.1147    7.9833    7.3541 O.2     1  UNL1        0.0000
@<TRIPOS>BOND
     1     7     6    1
     2     5     4    1
     3     6     4    1
     4     6     8    2
     5     4     2    2
     6    10     9    1
     7     8     9   ar
     8     8    21   ar
     9     2     3    1
    10     2    29    1
    11     9    11   ar
    12    35    34    1
    13    27    26    1
    14    21    29    1
    15    21    20   ar
    16    29     1    1
    17    40    28    2
    18    11    12    1
    19    11    13   ar
    20    34    26    1
    21    34    36    1
    22    34     1    1
    23    26    28    1
    24    26    23    1
    25    28    39    1
    26    39     1    1
    27    20    13   ar
    28    20    30    1
    29    13    14    2
    30     1    30    1
    31     1    31    1
    32     1    37    1
    33    25    23    1
    34    23    24    1
    35    23    22    1
    36    30    18    1
    37    14    15    1
    38    14    16    1
    39    31    32    2
    40    18    16    2
    41    18    19    1
    42    37    22    1
    43    22    38    2
    44    16    17    1
    45    32    33    2
