@<TRIPOS>MOLECULE
CSD_code = SUGPEP | q = 1 | S = 0 | Stoichiometry = C11H22CoN4O6(1+) | MND = 6
 44 47 0 0 0
SMALL
GASTEIGER

@<TRIPOS>ATOM
      1 CO          1.3847    1.9696    4.2739 Co.oh   1  UNL1        0.0000
      2 O           1.0571    0.4153    5.1866 O.3     1  UNL1        0.0000
      3 O           0.0244   -1.5370    5.1727 O.2     1  UNL1        0.0000
      4 O           2.7142    1.1361    3.3283 O.3     1  UNL1        0.0000
      5 O           3.2124   -0.1322    1.5901 O.2     1  UNL1        0.0000
      6 O          -2.6875    3.9136    1.4612 O.2     1  UNL1        0.0000
      7 O          -3.6922    2.5983   -0.0022 O.3     1  UNL1        0.0000
      8 N           0.1170    1.2271    2.8536 N.4     1  UNL1        0.0000
      9 N           0.0379    2.8487    5.5197 N.4     1  UNL1        0.0000
     10 N           2.6942    2.4241    5.6193 N.4     1  UNL1        0.0000
     11 N           1.9706    3.6891    3.3558 N.4     1  UNL1        0.0000
     12 C          -0.5655    0.0773    3.4853 C.3     1  UNL1        0.0000
     13 C           0.2373   -0.4550    4.7013 C.2     1  UNL1        0.0000
     14 C           0.9812    0.7611    1.7479 C.3     1  UNL1        0.0000
     15 C           2.4321    0.5097    2.2362 C.2     1  UNL1        0.0000
     16 C          -0.8739    2.1946    2.3522 C.3     1  UNL1        0.0000
     17 C          -1.8465    1.6820    1.2824 C.3     1  UNL1        0.0000
     18 C          -2.7806    2.8454    0.9269 C.2     1  UNL1        0.0000
     19 C           0.7513    3.5271    6.6222 C.3     1  UNL1        0.0000
     20 C           2.0325    2.7430    6.8936 C.3     1  UNL1        0.0000
     21 C           3.6341    3.4289    5.0998 C.3     1  UNL1        0.0000
     22 C           2.8766    4.4436    4.2476 C.3     1  UNL1        0.0000
     23 H          -3.6798    1.7029   -0.3675 H       1  UNL1        0.0000
     24 H          -0.4508    2.0480    5.9272 H       1  UNL1        0.0000
     25 H          -0.6821    3.4742    5.1592 H       1  UNL1        0.0000
     26 H           3.2138    1.5555    5.7509 H       1  UNL1        0.0000
     27 H           1.2872    4.3334    2.9595 H       1  UNL1        0.0000
     28 H           2.5355    3.3485    2.5744 H       1  UNL1        0.0000
     29 H          -0.7328   -0.7441    2.7858 H       1  UNL1        0.0000
     30 H          -1.5333    0.3917    3.8854 H       1  UNL1        0.0000
     31 H           1.0574    1.5373    0.9815 H       1  UNL1        0.0000
     32 H           0.6034   -0.1495    1.2788 H       1  UNL1        0.0000
     33 H          -0.3506    3.0547    1.9279 H       1  UNL1        0.0000
     34 H          -1.4764    2.5554    3.1891 H       1  UNL1        0.0000
     35 H          -2.4473    0.8481    1.6511 H       1  UNL1        0.0000
     36 H          -1.3214    1.3610    0.3805 H       1  UNL1        0.0000
     37 H           0.1401    3.5672    7.5290 H       1  UNL1        0.0000
     38 H           0.9723    4.5522    6.3245 H       1  UNL1        0.0000
     39 H           2.6977    3.3037    7.5562 H       1  UNL1        0.0000
     40 H           1.7704    1.7981    7.3739 H       1  UNL1        0.0000
     41 H           4.3558    2.9082    4.4671 H       1  UNL1        0.0000
     42 H           4.1708    3.9274    5.9119 H       1  UNL1        0.0000
     43 H           2.2847    5.1156    4.8691 H       1  UNL1        0.0000
     44 H           3.5838    5.0527    3.6766 H       1  UNL1        0.0000
@<TRIPOS>BOND
     1    23     7    1
     2     7    18    1
     3    36    17    1
     4    18    17    1
     5    18     6    2
     6    31    14    1
     7    32    14    1
     8    17    35    1
     9    17    16    1
    10     5    15    2
    11    14    15    1
    12    14     8    1
    13    33    16    1
    14    15     4    1
    15    16     8    1
    16    16    34    1
    17    28    11    1
    18    29    12    1
    19     8    12    1
    20     8     1    1
    21    27    11    1
    22     4     1    1
    23    11    22    1
    24    11     1    1
    25    12    30    1
    26    12    13    1
    27    44    22    1
    28    22    43    1
    29    22    21    1
    30     1     2    1
    31     1     9    1
    32     1    10    1
    33    41    21    1
    34    13     3    2
    35    13     2    1
    36    21    10    1
    37    21    42    1
    38    25     9    1
    39     9    24    1
    40     9    19    1
    41    10    26    1
    42    10    20    1
    43    38    19    1
    44    19    20    1
    45    19    37    1
    46    20    40    1
    47    20    39    1
