@<TRIPOS>MOLECULE
CSD_code = CUJNAY | q = 0 | S = 0 | Stoichiometry = C57H48CoNSi | MND = 7
 108 116 0 0 0
SMALL
GASTEIGER

@<TRIPOS>ATOM
      1 CO         12.6284    2.8452    3.9764 Co.oh   1  UNL1        0.0000
      2 SI          9.5753    3.3509    4.0296 Si      1  UNL1        0.0000
      3 N          11.0443    3.2335    4.9221 N.pl3   1  UNL1        0.0000
      4 C          11.2000    4.0331    6.0476 C.ar    1  UNL1        0.0000
      5 C          10.7974    3.5820    7.3183 C.ar    1  UNL1        0.0000
      6 C          10.9318    4.4140    8.4167 C.ar    1  UNL1        0.0000
      7 H          10.6150    4.0608    9.3871 H       1  UNL1        0.0000
      8 C          11.4611    5.6918    8.3097 C.ar    1  UNL1        0.0000
      9 C          11.8777    6.1308    7.0603 C.ar    1  UNL1        0.0000
     10 H          12.2975    7.1214    6.9584 H       1  UNL1        0.0000
     11 C          11.7476    5.3273    5.9443 C.ar    1  UNL1        0.0000
     12 C          11.6035    6.5631    9.5208 C.3     1  UNL1        0.0000
     13 H          12.4982    6.2880   10.0808 H       1  UNL1        0.0000
     14 H          10.7475    6.4442   10.1818 H       1  UNL1        0.0000
     15 H          11.6903    7.6093    9.2369 H       1  UNL1        0.0000
     16 C          10.2416    2.1835    7.4660 C.3     1  UNL1        0.0000
     17 H           9.5913    2.0075    6.6019 H       1  UNL1        0.0000
     18 C           9.3970    2.0344    8.7103 C.ar    1  UNL1        0.0000
     19 C           9.9450    1.6128    9.9164 C.ar    1  UNL1        0.0000
     20 H          10.9963    1.3676    9.9699 H       1  UNL1        0.0000
     21 C           9.1561    1.5048   11.0481 C.ar    1  UNL1        0.0000
     22 H           9.5957    1.1753   11.9787 H       1  UNL1        0.0000
     23 C           7.8090    1.8192   10.9913 C.ar    1  UNL1        0.0000
     24 H           7.1942    1.7349   11.8756 H       1  UNL1        0.0000
     25 C           7.2559    2.2407    9.7942 C.ar    1  UNL1        0.0000
     26 H           6.2055    2.4876    9.7392 H       1  UNL1        0.0000
     27 C           8.0443    2.3453    8.6625 C.ar    1  UNL1        0.0000
     28 H           7.6087    2.6743    7.7315 H       1  UNL1        0.0000
     29 C          11.3362    1.1398    7.4472 C.ar    1  UNL1        0.0000
     30 C          10.9831   -0.1987    7.3057 C.ar    1  UNL1        0.0000
     31 H           9.9405   -0.4638    7.1952 H       1  UNL1        0.0000
     32 C          11.9459   -1.1909    7.3247 C.ar    1  UNL1        0.0000
     33 H          11.6561   -2.2257    7.2123 H       1  UNL1        0.0000
     34 C          13.2800   -0.8599    7.4971 C.ar    1  UNL1        0.0000
     35 H          14.0317   -1.6359    7.5225 H       1  UNL1        0.0000
     36 C          13.6401    0.4683    7.6442 C.ar    1  UNL1        0.0000
     37 H          14.6778    0.7342    7.7898 H       1  UNL1        0.0000
     38 C          12.6758    1.4616    7.6165 C.ar    1  UNL1        0.0000
     39 H          12.9636    2.4937    7.7455 H       1  UNL1        0.0000
     40 C          12.1884    5.7669    4.5689 C.3     1  UNL1        0.0000
     41 H          11.3088    5.7155    3.9147 H       1  UNL1        0.0000
     42 C          12.7182    7.1780    4.5113 C.ar    1  UNL1        0.0000
     43 C          13.9967    7.4888    4.9598 C.ar    1  UNL1        0.0000
     44 H          14.6261    6.7071    5.3595 H       1  UNL1        0.0000
     45 C          14.4661    8.7883    4.8980 C.ar    1  UNL1        0.0000
     46 H          15.4614    9.0170    5.2510 H       1  UNL1        0.0000
     47 C          13.6650    9.7948    4.3851 C.ar    1  UNL1        0.0000
     48 H          14.0329   10.8091    4.3361 H       1  UNL1        0.0000
     49 C          12.3918    9.4933    3.9335 C.ar    1  UNL1        0.0000
     50 H          11.7624   10.2730    3.5298 H       1  UNL1        0.0000
     51 C          11.9228    8.1928    3.9953 C.ar    1  UNL1        0.0000
     52 H          10.9293    7.9599    3.6380 H       1  UNL1        0.0000
     53 C          13.2309    4.8151    4.0175 C.3     1  UNL1        0.0000
     54 C          13.5552    4.8892    2.6464 C.2     1  UNL1        0.0000
     55 H          12.9388    5.4974    1.9992 H       1  UNL1        0.0000
     56 C          14.6896    4.2806    2.1497 C.2     1  UNL1        0.0000
     57 H          14.9280    4.3626    1.0992 H       1  UNL1        0.0000
     58 C          15.5530    3.5932    3.0020 C.2     1  UNL1        0.0000
     59 H          16.4594    3.1557    2.6109 H       1  UNL1        0.0000
     60 C          15.2621    3.5001    4.3485 C.2     1  UNL1        0.0000
     61 H          15.9516    3.0047    5.0178 H       1  UNL1        0.0000
     62 C          14.0983    4.0808    4.8689 C.3     1  UNL1        0.0000
     63 H          13.9757    4.1472    5.9442 H       1  UNL1        0.0000
     64 C           8.1436    3.9363    5.1320 C.ar    1  UNL1        0.0000
     65 C           8.2390    5.0954    5.8949 C.ar    1  UNL1        0.0000
     66 H           9.1551    5.6663    5.8843 H       1  UNL1        0.0000
     67 C           7.1808    5.5303    6.6727 C.ar    1  UNL1        0.0000
     68 H           7.2820    6.4299    7.2628 H       1  UNL1        0.0000
     69 C           5.9942    4.8171    6.6923 C.ar    1  UNL1        0.0000
     70 H           5.1655    5.1557    7.2974 H       1  UNL1        0.0000
     71 C           5.8768    3.6663    5.9309 C.ar    1  UNL1        0.0000
     72 H           4.9540    3.1032    5.9387 H       1  UNL1        0.0000
     73 C           6.9438    3.2325    5.1634 C.ar    1  UNL1        0.0000
     74 H           6.8459    2.3296    4.5772 H       1  UNL1        0.0000
     75 C           9.6507    4.5680    2.5561 C.ar    1  UNL1        0.0000
     76 C           8.8901    5.7330    2.5054 C.ar    1  UNL1        0.0000
     77 H           8.2049    5.9514    3.3126 H       1  UNL1        0.0000
     78 C           8.9976    6.6139    1.4432 C.ar    1  UNL1        0.0000
     79 H           8.3992    7.5142    1.4263 H       1  UNL1        0.0000
     80 C           9.8681    6.3429    0.4011 C.ar    1  UNL1        0.0000
     81 H           9.9534    7.0294   -0.4290 H       1  UNL1        0.0000
     82 C          10.6275    5.1849    0.4293 C.ar    1  UNL1        0.0000
     83 H          11.3066    4.9649   -0.3831 H       1  UNL1        0.0000
     84 C          10.5173    4.3125    1.4970 C.ar    1  UNL1        0.0000
     85 H          11.1194    3.4136    1.5187 H       1  UNL1        0.0000
     86 C           9.0554    1.6711    3.3075 C.ar    1  UNL1        0.0000
     87 C           8.4297    1.6099    2.0670 C.ar    1  UNL1        0.0000
     88 H           8.2793    2.5218    1.5068 H       1  UNL1        0.0000
     89 C           7.9994    0.4059    1.5380 C.ar    1  UNL1        0.0000
     90 H           7.5167    0.3828    0.5709 H       1  UNL1        0.0000
     91 C           8.1848   -0.7689    2.2472 C.ar    1  UNL1        0.0000
     92 H           7.8499   -1.7105    1.8363 H       1  UNL1        0.0000
     93 C           8.8005   -0.7279    3.4869 C.ar    1  UNL1        0.0000
     94 H           8.9476   -1.6398    4.0484 H       1  UNL1        0.0000
     95 C           9.2256    0.4809    4.0073 C.ar    1  UNL1        0.0000
     96 H           9.7112    0.5045    4.9703 H       1  UNL1        0.0000
     97 C          12.8402    0.6615    4.0278 C.ar    2  UNL2        0.0000
     98 H          12.1365    0.4187    4.8148 H       2  UNL2        0.0000
     99 C          12.3790    1.1141    2.7728 C.ar    2  UNL2        0.0000
    100 H          11.3123    1.1875    2.5843 H       2  UNL2        0.0000
    101 C          13.2743    1.1778    1.6970 C.ar    2  UNL2        0.0000
    102 H          12.9184    1.4852    0.7231 H       2  UNL2        0.0000
    103 C          14.5910    0.7905    1.8562 C.ar    2  UNL2        0.0000
    104 H          15.2670    0.8190    1.0137 H       2  UNL2        0.0000
    105 C          15.0409    0.3340    3.0899 C.ar    2  UNL2        0.0000
    106 H          16.0654    0.0090    3.2000 H       2  UNL2        0.0000
    107 C          14.1770    0.2750    4.1662 C.ar    2  UNL2        0.0000
    108 H          14.5195   -0.1084    5.1157 H       2  UNL2        0.0000
@<TRIPOS>BOND
     1    81    80    1
     2    83    82    1
     3    80    82   ar
     4    80    78   ar
     5    82    84   ar
     6    90    89    1
     7   102   101    1
     8   104   103    1
     9    57    56    1
    10    79    78    1
    11    78    76   ar
    12    84    85    1
    13    84    75   ar
    14    88    87    1
    15    89    87   ar
    16    89    91   ar
    17   101   103   ar
    18   101    99   ar
    19    92    91    1
    20   103   105   ar
    21    55    54    1
    22    87    86   ar
    23    56    54    2
    24    56    58    1
    25    91    93   ar
    26    76    75   ar
    27    76    77    1
    28    75     2    1
    29   100    99    1
    30    59    58    1
    31    54    53    1
    32    99    97   ar
    33    58    60    2
    34   105   106    1
    35   105   107   ar
    36    86    95   ar
    37    86     2    1
    38    93    95   ar
    39    93    94    1
    40    50    49    1
    41    52    51    1
    42    41    40    1
    43    49    51   ar
    44    49    47   ar
    45     1    53    1
    46     1     3    1
    47    51    42   ar
    48    95    96    1
    49    53    40    1
    50    53    62    1
    51    97   107   ar
    52    97    98    1
    53     2     3    1
    54     2    64    1
    55   107   108    1
    56    48    47    1
    57    60    62    1
    58    60    61    1
    59    47    45   ar
    60    42    40    1
    61    42    43   ar
    62    40    11    1
    63    74    73    1
    64    62    63    1
    65    45    43   ar
    66    45    46    1
    67     3     4    1
    68    43    44    1
    69    64    73   ar
    70    64    65   ar
    71    73    71   ar
    72    66    65    1
    73    65    67   ar
    74    71    72    1
    75    71    69   ar
    76    11     4   ar
    77    11     9   ar
    78     4     5   ar
    79    17    16    1
    80    67    69   ar
    81    67    68    1
    82    69    70    1
    83    10     9    1
    84     9     8   ar
    85    31    30    1
    86    33    32    1
    87    30    32   ar
    88    30    29   ar
    89     5    16    1
    90     5     6   ar
    91    32    34   ar
    92    29    16    1
    93    29    38   ar
    94    16    18    1
    95    34    35    1
    96    34    36   ar
    97    38    36   ar
    98    38    39    1
    99    36    37    1
   100    28    27    1
   101     8     6   ar
   102     8    12    1
   103     6     7    1
   104    27    18   ar
   105    27    25   ar
   106    18    19   ar
   107    15    12    1
   108    12    13    1
   109    12    14    1
   110    26    25    1
   111    25    23   ar
   112    19    20    1
   113    19    21   ar
   114    23    21   ar
   115    23    24    1
   116    21    22    1
