@<TRIPOS>MOLECULE
CSD_code = SIQPUG | q = 0 | S = 0 | Stoichiometry = C23H26CoF4NP2 | MND = 6
 57 61 0 0 0
SMALL
GASTEIGER

@<TRIPOS>ATOM
      1 CO          2.6319   12.3776    1.8651 Co.oh   1  UNL1        0.0000
      2 P           3.2695   14.4261    2.1925 P.3     1  UNL1        0.0000
      3 P           1.6926   10.4349    1.6292 P.3     1  UNL1        0.0000
      4 F           2.7301   12.8181   -1.5530 F       1  UNL1        0.0000
      5 F           7.3013   10.6900    0.5335 F       1  UNL1        0.0000
      6 F           4.7898   12.2149   -3.1686 F       1  UNL1        0.0000
      7 C           5.1027   11.5289    0.8654 C.ar    1  UNL1        0.0000
      8 N           4.0531   11.6702    2.8982 N.pl3   1  UNL1        0.0000
      9 C           5.1324   11.3221    2.2785 C.3     1  UNL1        0.0000
     10 C           3.8879   12.0833    0.3831 C.ar    1  UNL1        0.0000
     11 C           3.8416   12.2930   -0.9913 C.ar    1  UNL1        0.0000
     12 C           4.8932   11.9894   -1.8473 C.ar    1  UNL1        0.0000
     13 C           2.1245   12.0103    5.9668 C.ar    1  UNL1        0.0000
     14 C           1.7004   12.5113    3.5668 C.ar    1  UNL1        0.0000
     15 C           2.5333   12.0355    4.6126 C.ar    1  UNL1        0.0000
     16 C           6.1692   11.2172    0.0182 C.ar    1  UNL1        0.0000
     17 C           6.0730   11.4442   -1.3405 C.ar    1  UNL1        0.0000
     18 C           0.4482   12.9578    3.9351 C.ar    1  UNL1        0.0000
     19 H          -0.2353   13.3325    3.1854 H       1  UNL1        0.0000
     20 C           0.0228   12.9410    5.2735 C.ar    1  UNL1        0.0000
     21 H          -0.9695   13.3024    5.5089 H       1  UNL1        0.0000
     22 C           4.6918   11.0977    5.2226 C.ar    1  UNL1        0.0000
     23 H           5.6799   10.7428    4.9690 H       1  UNL1        0.0000
     24 C           3.8273   11.5721    4.2572 C.ar    1  UNL1        0.0000
     25 C           3.0333   11.5178    6.9268 C.ar    1  UNL1        0.0000
     26 H           2.7321   11.4936    7.9646 H       1  UNL1        0.0000
     27 C           1.8364    9.6589   -0.0224 C.3     1  UNL1        0.0000
     28 H           2.8828    9.4503   -0.2384 H       1  UNL1        0.0000
     29 H           1.2611    8.7340   -0.0602 H       1  UNL1        0.0000
     30 H           1.4590   10.3611   -0.7633 H       1  UNL1        0.0000
     31 C           4.2785   11.0765    6.5590 C.ar    1  UNL1        0.0000
     32 H           4.9613   10.7034    7.3087 H       1  UNL1        0.0000
     33 C          -0.1134   10.3279    1.8866 C.3     1  UNL1        0.0000
     34 H          -0.4620    9.3153    1.6846 H       1  UNL1        0.0000
     35 H          -0.3491   10.6054    2.9118 H       1  UNL1        0.0000
     36 H          -0.5981   11.0296    1.2109 H       1  UNL1        0.0000
     37 C           4.1062   15.2499    0.7881 C.3     1  UNL1        0.0000
     38 H           3.4530   15.1899   -0.0804 H       1  UNL1        0.0000
     39 H           4.3123   16.2933    1.0262 H       1  UNL1        0.0000
     40 H           5.0374   14.7330    0.5628 H       1  UNL1        0.0000
     41 C           4.4673   14.7527    3.5423 C.3     1  UNL1        0.0000
     42 H           4.6873   15.8192    3.5844 H       1  UNL1        0.0000
     43 H           4.0425   14.4303    4.4916 H       1  UNL1        0.0000
     44 H           5.3882   14.2012    3.3593 H       1  UNL1        0.0000
     45 C           1.9814   15.6630    2.5790 C.3     1  UNL1        0.0000
     46 H           2.4271   16.6533    2.6711 H       1  UNL1        0.0000
     47 H           1.2493   15.6584    1.7740 H       1  UNL1        0.0000
     48 H           1.4862   15.3894    3.5082 H       1  UNL1        0.0000
     49 C           2.2682    9.0632    2.7018 C.3     1  UNL1        0.0000
     50 H           1.7057    8.1588    2.4713 H       1  UNL1        0.0000
     51 H           3.3284    8.8824    2.5306 H       1  UNL1        0.0000
     52 H           2.1172    9.3303    3.7466 H       1  UNL1        0.0000
     53 C           0.8331   12.4801    6.2760 C.ar    1  UNL1        0.0000
     54 H           0.4984   12.4707    7.3035 H       1  UNL1        0.0000
     55 F           7.0905   11.1493   -2.1690 F       1  UNL1        0.0000
     56 H           1.5735   12.9078    1.0531 H       1  UNL1        0.0000
     57 H           6.0040   10.9034    2.7727 H       1  UNL1        0.0000
@<TRIPOS>BOND
     1     6    12    1
     2    55    17    1
     3    12    17   ar
     4    12    11   ar
     5     4    11    1
     6    17    16   ar
     7    11    10   ar
     8    30    27    1
     9    28    27    1
    10    38    37    1
    11    29    27    1
    12    27     3    1
    13    16     5    1
    14    16     7   ar
    15    10     7   ar
    16    10     1    1
    17    40    37    1
    18    37    39    1
    19    37     2    1
    20     7     9    1
    21    56     1    1
    22    36    33    1
    23     3     1    1
    24     3    33    1
    25     3    49    1
    26    34    33    1
    27    47    45    1
    28     1     2    1
    29     1     8    1
    30     1    14    1
    31    33    35    1
    32     2    45    1
    33     2    41    1
    34     9    57    1
    35     9     8    1
    36    50    49    1
    37    51    49    1
    38    45    46    1
    39    45    48    1
    40    49    52    1
    41     8    24    1
    42    19    18    1
    43    44    41    1
    44    41    42    1
    45    41    43    1
    46    14    18   ar
    47    14    15   ar
    48    18    20   ar
    49    24    15   ar
    50    24    22   ar
    51    15    13   ar
    52    23    22    1
    53    22    31   ar
    54    20    21    1
    55    20    53   ar
    56    13    53   ar
    57    13    25   ar
    58    53    54    1
    59    31    25   ar
    60    31    32    1
    61    25    26    1
