@<TRIPOS>MOLECULE
CSD_code = VUFPOD | q = 0 | S = 0 | Stoichiometry = C23H30CoNP2 | MND = 6
 57 61 0 0 0
SMALL
GASTEIGER

@<TRIPOS>ATOM
      1 CO         -2.9424    2.3426   17.0971 Co.oh   1  UNL1        0.0000
      2 P          -3.7009    0.5857   18.0943 P.3     1  UNL1        0.0000
      3 P          -2.2711    4.1611   16.1498 P.3     1  UNL1        0.0000
      4 N          -1.5240    1.3491   16.3331 N.pl3   1  UNL1        0.0000
      5 C          -5.5026    0.2800   17.9910 C.3     1  UNL1        0.0000
      6 H          -5.7732   -0.6120   18.5559 H       1  UNL1        0.0000
      7 H          -5.7836    0.1601   16.9467 H       1  UNL1        0.0000
      8 H          -6.0207    1.1473   18.3948 H       1  UNL1        0.0000
      9 C          -3.0643   -1.0532   17.5659 C.3     1  UNL1        0.0000
     10 H          -1.9892   -1.0994   17.7352 H       1  UNL1        0.0000
     11 H          -3.2661   -1.1951   16.5051 H       1  UNL1        0.0000
     12 H          -3.5550   -1.8402   18.1382 H       1  UNL1        0.0000
     13 C          -3.4535    0.4500   19.9048 C.3     1  UNL1        0.0000
     14 H          -3.9262   -0.4537   20.2897 H       1  UNL1        0.0000
     15 H          -3.8881    1.3290   20.3764 H       1  UNL1        0.0000
     16 H          -2.3871    0.4336   20.1226 H       1  UNL1        0.0000
     17 C          -1.6689    2.6771   18.5470 C.ar    1  UNL1        0.0000
     18 C          -1.7277    3.3767   19.7356 C.ar    1  UNL1        0.0000
     19 H          -2.6330    3.9023   20.0091 H       1  UNL1        0.0000
     20 C          -0.6386    3.4344   20.6193 C.ar    1  UNL1        0.0000
     21 H          -0.7409    3.9982   21.5380 H       1  UNL1        0.0000
     22 C           0.5415    2.7973   20.3434 C.ar    1  UNL1        0.0000
     23 H           1.3767    2.8470   21.0285 H       1  UNL1        0.0000
     24 C           0.6717    2.0640   19.1484 C.ar    1  UNL1        0.0000
     25 C           1.8428    1.3718   18.7750 C.ar    1  UNL1        0.0000
     26 H           2.6982    1.4000   19.4360 H       1  UNL1        0.0000
     27 C           1.9033    0.6721   17.5979 C.ar    1  UNL1        0.0000
     28 H           2.8087    0.1462   17.3283 H       1  UNL1        0.0000
     29 C           0.8095    0.6201   16.7267 C.ar    1  UNL1        0.0000
     30 H           0.8922    0.0567   15.8079 H       1  UNL1        0.0000
     31 C          -0.3509    1.2877   17.0607 C.ar    1  UNL1        0.0000
     32 C          -0.4396    2.0188   18.2737 C.ar    1  UNL1        0.0000
     33 C          -1.7438    0.7969   15.1857 C.3     1  UNL1        0.0000
     34 H          -0.9954    0.2090   14.6569 H       1  UNL1        0.0000
     35 C          -3.0496    1.0046   14.6503 C.ar    1  UNL1        0.0000
     36 C          -3.8959    1.7845   15.4816 C.ar    1  UNL1        0.0000
     37 C          -5.1873    2.0057   14.9983 C.ar    1  UNL1        0.0000
     38 H          -5.8807    2.5932   15.5858 H       1  UNL1        0.0000
     39 C          -4.7562    0.7371   12.9889 C.ar    1  UNL1        0.0000
     40 H          -5.1005    0.3460   12.0417 H       1  UNL1        0.0000
     41 C          -3.4740    0.4882   13.4215 C.ar    1  UNL1        0.0000
     42 H          -2.7918   -0.1022   12.8224 H       1  UNL1        0.0000
     43 C          -5.6098    1.4976   13.7825 C.ar    1  UNL1        0.0000
     44 H          -6.6179    1.6920   13.4399 H       1  UNL1        0.0000
     45 C          -3.3541    4.9016   14.8701 C.3     1  UNL1        0.0000
     46 H          -4.3296    5.0867   15.3153 H       1  UNL1        0.0000
     47 H          -3.4768    4.1987   14.0484 H       1  UNL1        0.0000
     48 H          -2.9294    5.8352   14.5012 H       1  UNL1        0.0000
     49 C          -0.6772    4.1205   15.2406 C.3     1  UNL1        0.0000
     50 H          -0.4568    5.1079   14.8358 H       1  UNL1        0.0000
     51 H          -0.7415    3.4008   14.4256 H       1  UNL1        0.0000
     52 H           0.1189    3.8189   15.9202 H       1  UNL1        0.0000
     53 C          -1.9947    5.6229   17.2160 C.3     1  UNL1        0.0000
     54 H          -1.2119    5.3966   17.9370 H       1  UNL1        0.0000
     55 H          -2.9157    5.8320   17.7561 H       1  UNL1        0.0000
     56 H          -1.7109    6.4861   16.6139 H       1  UNL1        0.0000
     57 H          -4.0236    3.0995   17.6795 H       1  UNL1        0.0000
@<TRIPOS>BOND
     1    40    39    1
     2    42    41    1
     3    39    41   ar
     4    39    43   ar
     5    41    35   ar
     6    44    43    1
     7    43    37   ar
     8    47    45    1
     9    51    49    1
    10    48    45    1
    11    35    33    1
    12    35    36   ar
    13    34    33    1
    14    50    49    1
    15    45    46    1
    16    45     3    1
    17    37    36   ar
    18    37    38    1
    19    33     4    1
    20    49    52    1
    21    49     3    1
    22    36     1    1
    23    30    29    1
    24     3     1    1
    25     3    53    1
    26     4    31    1
    27     4     1    1
    28    11     9    1
    29    56    53    1
    30    29    31   ar
    31    29    27   ar
    32     7     5    1
    33    31    32   ar
    34     1    57    1
    35     1     2    1
    36     1    17    1
    37    53    55    1
    38    53    54    1
    39    28    27    1
    40     9    10    1
    41     9     2    1
    42     9    12    1
    43    27    25   ar
    44     5     2    1
    45     5     8    1
    46     5     6    1
    47     2    13    1
    48    32    17   ar
    49    32    24   ar
    50    17    18   ar
    51    25    24   ar
    52    25    26    1
    53    24    22   ar
    54    18    19    1
    55    18    20   ar
    56    13    16    1
    57    13    14    1
    58    13    15    1
    59    22    20   ar
    60    22    23    1
    61    20    21    1
