@<TRIPOS>MOLECULE
CSD_code = PAKVAB | q = 1 | S = 0 | Stoichiometry = C50H55CoN5Si(1+) | MND = 5
 112 120 0 0 0
SMALL
GASTEIGER

@<TRIPOS>ATOM
      1 CO          3.5110    3.2864    1.1444 Co.oh   1  UNL1        0.0000
      2 H           3.6516    2.6024    2.3805 H       1  UNL1        0.0000
      3 SI          4.0340    1.3027    0.1664 Si      1  UNL1        0.0000
      4 N           0.9109    2.5798   -0.0843 N.pl3   1  UNL1        0.0000
      5 N           0.8650    2.2549    2.0326 N.pl3   1  UNL1        0.0000
      6 N           5.9406    4.2739    2.5257 N.pl3   1  UNL1        0.0000
      7 N           6.3052    4.0092    0.4324 N.pl3   1  UNL1        0.0000
      8 N           3.3331    4.4321   -0.2415 N.3     1  UNL1        0.0000
      9 C           1.6638    2.6858    1.0340 C.3     1  UNL1        0.0000
     10 C           5.3414    3.9041    1.3762 C.3     1  UNL1        0.0000
     11 C          -0.3365    2.1028    0.2131 C.2     1  UNL1        0.0000
     12 H          -1.0794    1.9344   -0.5386 H       1  UNL1        0.0000
     13 C          -0.3651    1.8990    1.5488 C.2     1  UNL1        0.0000
     14 H          -1.1513    1.5537    2.1869 H       1  UNL1        0.0000
     15 C           1.3167    2.9183   -1.3997 C.ar    1  UNL1        0.0000
     16 C           2.2948    2.1480   -2.0311 C.ar    1  UNL1        0.0000
     17 C           2.6991    2.5209   -3.3040 C.ar    1  UNL1        0.0000
     18 H           3.4560    1.9376   -3.8047 H       1  UNL1        0.0000
     19 C           2.1434    3.6127   -3.9553 C.ar    1  UNL1        0.0000
     20 C           1.1506    4.3387   -3.3129 C.ar    1  UNL1        0.0000
     21 H           0.6956    5.1790   -3.8178 H       1  UNL1        0.0000
     22 C           0.7241    4.0089   -2.0353 C.ar    1  UNL1        0.0000
     23 C          -0.3278    4.8286   -1.3477 C.3     1  UNL1        0.0000
     24 H          -0.4816    5.7696   -1.8703 H       1  UNL1        0.0000
     25 H          -0.0468    5.0397   -0.3161 H       1  UNL1        0.0000
     26 H          -1.2816    4.3026   -1.3321 H       1  UNL1        0.0000
     27 C           2.6164    4.0024   -5.3207 C.3     1  UNL1        0.0000
     28 H           1.9451    4.7248   -5.7771 H       1  UNL1        0.0000
     29 H           2.6822    3.1305   -5.9675 H       1  UNL1        0.0000
     30 H           3.6103    4.4442   -5.2572 H       1  UNL1        0.0000
     31 C           2.8622    0.9501   -1.3579 C.3     1  UNL1        0.0000
     32 H           3.4245    0.3694   -2.0852 H       1  UNL1        0.0000
     33 H           2.0489    0.3232   -0.9912 H       1  UNL1        0.0000
     34 C           1.1830    2.1457    3.4118 C.ar    1  UNL1        0.0000
     35 C           1.1807    0.8853    4.0099 C.ar    1  UNL1        0.0000
     36 C           1.4377    0.8052    5.3705 C.ar    1  UNL1        0.0000
     37 H           1.4428   -0.1658    5.8432 H       1  UNL1        0.0000
     38 C           1.6698    1.9374    6.1374 C.ar    1  UNL1        0.0000
     39 C           1.6579    3.1779    5.5145 C.ar    1  UNL1        0.0000
     40 H           1.8274    4.0677    6.1001 H       1  UNL1        0.0000
     41 C           1.4232    3.3014    4.1558 C.ar    1  UNL1        0.0000
     42 C           1.4178    4.6440    3.4912 C.3     1  UNL1        0.0000
     43 H           1.5933    5.4317    4.2176 H       1  UNL1        0.0000
     44 H           0.4663    4.8278    2.9911 H       1  UNL1        0.0000
     45 H           2.2152    4.6859    2.7376 H       1  UNL1        0.0000
     46 C           1.9362    1.8162    7.6050 C.3     1  UNL1        0.0000
     47 H           2.9886    1.5879    7.7736 H       1  UNL1        0.0000
     48 H           1.3486    1.0109    8.0391 H       1  UNL1        0.0000
     49 H           1.7002    2.7429    8.1209 H       1  UNL1        0.0000
     50 C           0.8887   -0.3606    3.2291 C.3     1  UNL1        0.0000
     51 H          -0.1851   -0.5465    3.1978 H       1  UNL1        0.0000
     52 H           1.3585   -1.2179    3.7027 H       1  UNL1        0.0000
     53 H           1.2580   -0.2888    2.2088 H       1  UNL1        0.0000
     54 C           7.2561    4.5894    2.3128 C.2     1  UNL1        0.0000
     55 H           7.8997    4.9070    3.1067 H       1  UNL1        0.0000
     56 C           7.4870    4.4200    0.9933 C.2     1  UNL1        0.0000
     57 H           8.3798    4.5383    0.4155 H       1  UNL1        0.0000
     58 C           5.3556    4.4291    3.8130 C.ar    1  UNL1        0.0000
     59 C           5.5474    3.4454    4.7804 C.ar    1  UNL1        0.0000
     60 C           5.0773    3.6858    6.0631 C.ar    1  UNL1        0.0000
     61 H           5.2294    2.9342    6.8233 H       1  UNL1        0.0000
     62 C           4.4486    4.8761    6.3967 C.ar    1  UNL1        0.0000
     63 C           4.2606    5.8322    5.4065 C.ar    1  UNL1        0.0000
     64 H           3.7741    6.7647    5.6553 H       1  UNL1        0.0000
     65 C           4.7080    5.6283    4.1119 C.ar    1  UNL1        0.0000
     66 C           4.5426    6.6847    3.0592 C.3     1  UNL1        0.0000
     67 H           5.5109    7.1146    2.7979 H       1  UNL1        0.0000
     68 H           3.8996    7.4846    3.4159 H       1  UNL1        0.0000
     69 H           4.1065    6.2645    2.1519 H       1  UNL1        0.0000
     70 C           4.0179    5.1504    7.8039 C.3     1  UNL1        0.0000
     71 H           3.8807    4.2266    8.3588 H       1  UNL1        0.0000
     72 H           3.0939    5.7241    7.8286 H       1  UNL1        0.0000
     73 H           4.7831    5.7376    8.3120 H       1  UNL1        0.0000
     74 C           6.2849    2.1834    4.4561 C.3     1  UNL1        0.0000
     75 H           6.0744    1.8551    3.4406 H       1  UNL1        0.0000
     76 H           6.0057    1.3922    5.1462 H       1  UNL1        0.0000
     77 H           7.3600    2.3441    4.5458 H       1  UNL1        0.0000
     78 C           6.2003    3.7930   -0.9681 C.ar    1  UNL1        0.0000
     79 C           6.3544    4.8772   -1.8316 C.ar    1  UNL1        0.0000
     80 C           6.3446    4.6430   -3.1995 C.ar    1  UNL1        0.0000
     81 H           6.4717    5.4784   -3.8733 H       1  UNL1        0.0000
     82 C           6.2134    3.3622   -3.7159 C.ar    1  UNL1        0.0000
     83 C           6.0518    2.3046   -2.8323 C.ar    1  UNL1        0.0000
     84 H           5.9616    1.3002   -3.2195 H       1  UNL1        0.0000
     85 C           6.0440    2.4963   -1.4592 C.ar    1  UNL1        0.0000
     86 C           5.8552    1.3604   -0.5261 C.3     1  UNL1        0.0000
     87 H           6.5430    1.4278    0.3146 H       1  UNL1        0.0000
     88 H           6.0472    0.4180   -1.0340 H       1  UNL1        0.0000
     89 C           6.2850    3.1107   -5.1899 C.3     1  UNL1        0.0000
     90 H           5.5039    2.4237   -5.5076 H       1  UNL1        0.0000
     91 H           7.2436    2.6557   -5.4372 H       1  UNL1        0.0000
     92 H           6.1962    4.0351   -5.7543 H       1  UNL1        0.0000
     93 C           6.5543    6.2710   -1.3112 C.3     1  UNL1        0.0000
     94 H           5.9938    6.4392   -0.3931 H       1  UNL1        0.0000
     95 H           6.2480    7.0026   -2.0548 H       1  UNL1        0.0000
     96 H           7.6082    6.4479   -1.0956 H       1  UNL1        0.0000
     97 C           4.0128   -0.3155    1.1929 C.ar    1  UNL1        0.0000
     98 C           4.0995   -0.3435    2.5795 C.ar    1  UNL1        0.0000
     99 H           4.0981    0.5855    3.1267 H       1  UNL1        0.0000
    100 C           4.1626   -1.5407    3.2703 C.ar    1  UNL1        0.0000
    101 H           4.2342   -1.5350    4.3481 H       1  UNL1        0.0000
    102 C           4.1319   -2.7419    2.5834 C.ar    1  UNL1        0.0000
    103 H           4.1801   -3.6785    3.1183 H       1  UNL1        0.0000
    104 C           4.0361   -2.7339    1.2021 C.ar    1  UNL1        0.0000
    105 H           4.0081   -3.6656    0.6567 H       1  UNL1        0.0000
    106 C           3.9813   -1.5338    0.5170 C.ar    1  UNL1        0.0000
    107 H           3.9139   -1.5480   -0.5604 H       1  UNL1        0.0000
    108 C           3.2299    5.4044   -0.8517 C.3     1  UNL1        0.0000
    109 C           3.0903    6.5822   -1.6498 C.3     1  UNL1        0.0000
    110 H           3.5484    6.4064   -2.6229 H       1  UNL1        0.0000
    111 H           3.5782    7.4295   -1.1675 H       1  UNL1        0.0000
    112 H           2.0341    6.8099   -1.7898 H       1  UNL1        0.0000
@<TRIPOS>BOND
     1    29    27    1
     2    28    27    1
     3    92    89    1
     4    90    89    1
     5    91    89    1
     6    27    30    1
     7    27    19    1
     8    89    82    1
     9    19    20   ar
    10    19    17   ar
    11    81    80    1
    12    21    20    1
    13    18    17    1
    14    82    80   ar
    15    82    83   ar
    16    20    22   ar
    17    17    16   ar
    18    84    83    1
    19    80    79   ar
    20    83    85   ar
    21   110   109    1
    22    32    31    1
    23    95    93    1
    24    22    15   ar
    25    22    23    1
    26    16    15   ar
    27    16    31    1
    28    24    23    1
    29    79    93    1
    30    79    78   ar
    31   112   109    1
    32   109   111    1
    33   109   108    1
    34    85    78   ar
    35    85    86    1
    36    15     4    1
    37    31    33    1
    38    31     3    1
    39    23    26    1
    40    23    25    1
    41    93    96    1
    42    93    94    1
    43    88    86    1
    44    78     7    1
    45   108     8    1
    46   107   106    1
    47    12    11    1
    48    86     3    1
    49    86    87    1
    50     8     1    1
    51     4    11    1
    52     4     9    1
    53     3     1    1
    54     3    97    1
    55    11    13    2
    56    57    56    1
    57     7    56    1
    58     7    10    1
    59   106    97   ar
    60   106   104   ar
    61   105   104    1
    62    56    54    2
    63     9     1    1
    64     9     5    1
    65     1    10    1
    66     1     2    1
    67    97    98   ar
    68   104   102   ar
    69    10     6    1
    70    13     5    1
    71    13    14    1
    72     5    34    1
    73    69    66    1
    74    53    50    1
    75    54     6    1
    76    54    55    1
    77     6    58    1
    78    98    99    1
    79    98   100   ar
    80   102   103    1
    81   102   100   ar
    82    45    42    1
    83    67    66    1
    84    44    42    1
    85    66    68    1
    86    66    65    1
    87    51    50    1
    88    50    52    1
    89    50    35    1
    90   100   101    1
    91    34    35   ar
    92    34    41   ar
    93    75    74    1
    94    42    41    1
    95    42    43    1
    96    58    65   ar
    97    58    59   ar
    98    35    36   ar
    99    65    63   ar
   100    41    39   ar
   101    74    77    1
   102    74    59    1
   103    74    76    1
   104    59    60   ar
   105    36    37    1
   106    36    38   ar
   107    63    64    1
   108    63    62   ar
   109    39    40    1
   110    39    38   ar
   111    60    62   ar
   112    60    61    1
   113    38    46    1
   114    62    70    1
   115    46    47    1
   116    46    48    1
   117    46    49    1
   118    70    72    1
   119    70    73    1
   120    70    71    1
