@<TRIPOS>MOLECULE
CSD_code = DIFTER | q = 1 | S = 0 | Stoichiometry = C16H20CoN10S2(1+) | MND = 6
 49 54 0 0 0
SMALL
GASTEIGER

@<TRIPOS>ATOM
      1 CO          7.8708    5.6714    8.8095 Co.oh   1  UNL1        0.0000
      2 S           7.0336    4.5852   10.6238 S.3     1  UNL1        0.0000
      3 S           9.9647    4.9084    9.2621 S.3     1  UNL1        0.0000
      4 N           8.6258    6.8430    7.4908 N.pl3   1  UNL1        0.0000
      5 N           7.7044    7.1029   11.2297 N.2     1  UNL1        0.0000
      6 N           8.0421    7.1141    9.9351 N.pl3   1  UNL1        0.5000
      7 N           6.0731    6.0346    8.2475 N.pl3   1  UNL1        0.0000
      8 N           8.7828    9.3206   10.1447 N.pl3   1  UNL1        0.5000
      9 N           7.7232    4.1912    7.7301 N.pl3   1  UNL1        0.5000
     10 N           8.6888    3.2797    7.5664 N.2     1  UNL1        0.0000
     11 N           6.8301    5.8222   12.9298 N.pl3   1  UNL1        0.0000
     12 C           8.6001    8.1780    9.4228 C.2     1  UNL1        0.0000
     13 C           8.9174    8.0528    8.0177 C.2     1  UNL1        0.0000
     14 C           7.2248    5.9673   11.6646 C.2     1  UNL1        0.0000
     15 C           5.6101    5.0667    7.4259 C.2     1  UNL1        0.0000
     16 C           6.5613    4.0101    7.1619 C.2     1  UNL1        0.0000
     17 N           6.3147    2.9554    6.3330 N.pl3   1  UNL1        0.5000
     18 C           9.4844    9.0654    7.2406 C.2     1  UNL1        0.0000
     19 C           8.8964    6.6155    6.2106 C.2     1  UNL1        0.0000
     20 C           9.4680    7.5675    5.3860 C.2     1  UNL1        0.0000
     21 C           9.7645    8.8192    5.9119 C.2     1  UNL1        0.0000
     22 C           9.7846    3.5099    8.2416 C.2     1  UNL1        0.0000
     23 N          10.8331    2.6911    8.1609 N.pl3   1  UNL1        0.0000
     24 C           6.9996    6.8240   13.9515 C.3     1  UNL1        0.0000
     25 C           5.2728    7.0446    8.5687 C.2     1  UNL1        0.0000
     26 C           4.3145    5.1143    6.9064 C.2     1  UNL1        0.0000
     27 C           3.9759    7.1501    8.0998 C.2     1  UNL1        0.0000
     28 C           3.4883    6.1651    7.2494 C.2     1  UNL1        0.0000
     29 C          10.8444    1.4483    7.4321 C.3     1  UNL1        0.0000
     30 H           9.6931   10.0278    7.6785 H       1  UNL1        0.0000
     31 H           8.6561    5.6339    5.8261 H       1  UNL1        0.0000
     32 H           9.6752    7.3310    4.3557 H       1  UNL1        0.0000
     33 H          10.2072    9.5843    5.2938 H       1  UNL1        0.0000
     34 H           7.9158    6.6546   14.5231 H       1  UNL1        0.0000
     35 H           6.1486    6.7941   14.6301 H       1  UNL1        0.0000
     36 H           7.0536    7.8001   13.4759 H       1  UNL1        0.0000
     37 H           5.6760    7.7973    9.2321 H       1  UNL1        0.0000
     38 H           3.9713    4.3385    6.2416 H       1  UNL1        0.0000
     39 H           3.3639    7.9855    8.3963 H       1  UNL1        0.0000
     40 H           2.4819    6.2195    6.8653 H       1  UNL1        0.0000
     41 H          10.7180    0.5974    8.1062 H       1  UNL1        0.0000
     42 H          11.7927    1.3437    6.9057 H       1  UNL1        0.0000
     43 H          10.0281    1.4602    6.7144 H       1  UNL1        0.0000
     44 H           6.5519    4.8954   13.2151 H       1  UNL1        0.0000
     45 H          11.6157    2.8933    8.7648 H       1  UNL1        0.0000
     46 H           9.5178    9.9512    9.8733 H       1  UNL1        0.0000
     47 H           8.6610    9.1892   11.1393 H       1  UNL1        0.0000
     48 H           5.3661    2.6395    6.2229 H       1  UNL1        0.0000
     49 H           7.0162    2.2301    6.3874 H       1  UNL1        0.0000
@<TRIPOS>BOND
     1    32    20    1
     2    33    21    1
     3    20    21    1
     4    20    19    2
     5    31    19    1
     6    21    18    2
     7    19     4    1
     8    48    17    1
     9    38    26    1
    10    17    49    1
    11    17    16    1
    12    43    29    1
    13    40    28    1
    14    42    29    1
    15    26    28    2
    16    26    15    1
    17    16    15    2
    18    16     9    1
    19    18    30    1
    20    18    13    1
    21    28    27    1
    22    15     7    1
    23    29    41    1
    24    29    23    1
    25     4    13    1
    26     4     1    1
    27    10     9    1
    28    10    22    2
    29     9     1    1
    30    13    12    2
    31    27    39    1
    32    27    25    2
    33    23    22    1
    34    23    45    1
    35    22     3    1
    36     7    25    1
    37     7     1    1
    38    25    37    1
    39     1     3    1
    40     1     6    1
    41     1     2    1
    42    12     6    1
    43    12     8    1
    44    46     8    1
    45     6     5    1
    46     8    47    1
    47     2    14    1
    48     5    14    2
    49    14    11    1
    50    11    44    1
    51    11    24    1
    52    36    24    1
    53    24    34    1
    54    24    35    1
