@<TRIPOS>MOLECULE
CSD_code = EROYAL | q = 1 | S = 0 | Stoichiometry = C24H36CoN10S2(1+) | MND = 6
 73 80 0 0 0
SMALL
GASTEIGER

@<TRIPOS>ATOM
      1 CO          4.2185    0.3681   14.0997 Co.oh   1  UNL1        0.0000
      2 S           1.9823    0.1415   14.3320 S.3     1  UNL1        0.0000
      3 S           4.1553    2.2467   15.3540 S.3     1  UNL1        0.0000
      4 N           6.1487    0.3971   14.1898 N.pl3   1  UNL1        0.0000
      5 N           7.2356    0.9562   13.6470 N.3     1  UNL1        0.0000
      6 H           7.1653    1.6017   12.8744 H       1  UNL1        0.0000
      7 N           4.3465   -0.7850   15.5445 N.pl3   1  UNL1        0.0000
      8 N           3.3034   -1.3299   16.1292 N.2     1  UNL1        0.0000
      9 N           1.0189   -1.4224   16.2488 N.pl3   1  UNL1        0.0000
     10 N           4.1924   -1.0386   12.7729 N.pl3   1  UNL1        0.0000
     11 N           4.1932   -2.3678   12.6215 N.3     1  UNL1        0.0000
     12 H           4.2356   -2.9877   13.4167 H       1  UNL1        0.0000
     13 N           4.1031    1.5032   12.6409 N.pl3   1  UNL1        0.0000
     14 N           4.0500    2.8105   12.7444 N.2     1  UNL1        0.0000
     15 N           3.9863    4.6134   14.1451 N.pl3   1  UNL1        0.0000
     16 C           9.7036    1.0430   13.8769 C.3     1  UNL1        0.0000
     17 H           9.8979    0.8113   12.8305 H       1  UNL1        0.0000
     18 H          10.4662    0.5701   14.4876 H       1  UNL1        0.0000
     19 H           9.7764    2.1226   14.0033 H       1  UNL1        0.0000
     20 C           8.3629    0.5615   14.2810 C.3     1  UNL1        0.0000
     21 C           7.9749   -0.3022   15.2840 C.2     1  UNL1        0.0000
     22 H           8.6045   -0.8039   15.9878 H       1  UNL1        0.0000
     23 C           6.5740   -0.3758   15.1989 C.2     1  UNL1        0.0000
     24 C           5.5554   -1.0463   15.9382 C.3     1  UNL1        0.0000
     25 H           5.7598   -1.6982   16.7752 H       1  UNL1        0.0000
     26 C           2.1207   -0.9596   15.6703 C.2     1  UNL1        0.0000
     27 C          -0.2893   -1.1633   15.6984 C.3     1  UNL1        0.0000
     28 H          -0.3476   -0.1116   15.4039 H       1  UNL1        0.0000
     29 H          -1.0138   -1.3348   16.4952 H       1  UNL1        0.0000
     30 C          -0.6151   -2.0525   14.4860 C.3     1  UNL1        0.0000
     31 H          -0.3032   -1.5477   13.5705 H       1  UNL1        0.0000
     32 H          -1.6970   -2.1785   14.4426 H       1  UNL1        0.0000
     33 C           0.0617   -3.4246   14.5313 C.3     1  UNL1        0.0000
     34 H          -0.3947   -4.0396   13.7539 H       1  UNL1        0.0000
     35 H           1.1186   -3.3145   14.2733 H       1  UNL1        0.0000
     36 C          -0.0457   -4.1470   15.8790 C.3     1  UNL1        0.0000
     37 H          -0.0371   -5.2238   15.7010 H       1  UNL1        0.0000
     38 H          -0.9966   -3.9061   16.3559 H       1  UNL1        0.0000
     39 C           1.1133   -3.8242   16.8232 C.3     1  UNL1        0.0000
     40 H           2.0582   -4.0111   16.3087 H       1  UNL1        0.0000
     41 H           1.0704   -4.4842   17.6905 H       1  UNL1        0.0000
     42 C           1.1057   -2.3811   17.3302 C.3     1  UNL1        0.0000
     43 H           0.2472   -2.2212   17.9863 H       1  UNL1        0.0000
     44 H           2.0223   -2.1825   17.8879 H       1  UNL1        0.0000
     45 C           4.0950   -4.1306   10.8786 C.3     1  UNL1        0.0000
     46 H           4.9761   -4.6610   11.2372 H       1  UNL1        0.0000
     47 H           4.0734   -4.1810    9.7946 H       1  UNL1        0.0000
     48 H           3.2129   -4.6378   11.2680 H       1  UNL1        0.0000
     49 C           4.1186   -2.7162   11.3169 C.3     1  UNL1        0.0000
     50 C           4.0702   -1.5433   10.5931 C.2     1  UNL1        0.0000
     51 H           4.0045   -1.4387    9.5310 H       1  UNL1        0.0000
     52 C           4.1150   -0.5091   11.5442 C.2     1  UNL1        0.0000
     53 C           4.0734    0.9147   11.4838 C.3     1  UNL1        0.0000
     54 H           3.9927    1.4679   10.5594 H       1  UNL1        0.0000
     55 C           4.0461    3.2981   13.9729 C.2     1  UNL1        0.0000
     56 C           3.8718    5.2093   15.4561 C.3     1  UNL1        0.0000
     57 H           4.3104    6.2087   15.4052 H       1  UNL1        0.0000
     58 H           4.4509    4.6113   16.1646 H       1  UNL1        0.0000
     59 C           2.4189    5.2988   15.9283 C.3     1  UNL1        0.0000
     60 H           2.0473    4.2906   16.1224 H       1  UNL1        0.0000
     61 H           2.4080    5.8453   16.8721 H       1  UNL1        0.0000
     62 C           1.4941    5.9867   14.9236 C.3     1  UNL1        0.0000
     63 H           0.5329    6.1427   15.4160 H       1  UNL1        0.0000
     64 H           1.8866    6.9704   14.6609 H       1  UNL1        0.0000
     65 C           1.2656    5.1537   13.6575 C.3     1  UNL1        0.0000
     66 H           0.2717    5.3654   13.2604 H       1  UNL1        0.0000
     67 H           1.2810    4.0945   13.9252 H       1  UNL1        0.0000
     68 C           2.2719    5.4076   12.5316 C.3     1  UNL1        0.0000
     69 H           2.1674    4.6085   11.7972 H       1  UNL1        0.0000
     70 H           2.0405    6.3511   12.0362 H       1  UNL1        0.0000
     71 C           3.7320    5.4702   13.0059 C.3     1  UNL1        0.0000
     72 H           4.3919    5.1677   12.1900 H       1  UNL1        0.0000
     73 H           3.9896    6.4866   13.3048 H       1  UNL1        0.0000
@<TRIPOS>BOND
     1    51    50    1
     2    47    45    1
     3    54    53    1
     4    50    49    1
     5    50    52    2
     6    45    46    1
     7    45    48    1
     8    45    49    1
     9    49    11    1
    10    53    52    1
    11    53    13    1
    12    52    10    1
    13    69    68    1
    14    70    68    1
    15    72    71    1
    16    68    71    1
    17    68    65    1
    18    11    10    1
    19    11    12    1
    20    13    14    1
    21    13     1    1
    22    14    55    2
    23    10     1    1
    24    17    16    1
    25     6     5    1
    26    71    73    1
    27    71    15    1
    28    66    65    1
    29    31    30    1
    30     5     4    1
    31     5    20    1
    32    65    67    1
    33    65    62    1
    34    34    33    1
    35    16    19    1
    36    16    20    1
    37    16    18    1
    38    55    15    1
    39    55     3    1
    40     1     4    1
    41     1     2    1
    42     1     3    1
    43     1     7    1
    44    15    56    1
    45     4    23    1
    46    35    33    1
    47    20    21    1
    48     2    26    1
    49    32    30    1
    50    30    33    1
    51    30    27    1
    52    33    36    1
    53    64    62    1
    54    62    63    1
    55    62    59    1
    56    23    21    2
    57    23    24    1
    58    21    22    1
    59    28    27    1
    60    57    56    1
    61    56    59    1
    62    56    58    1
    63     7    24    1
    64     7     8    1
    65    26     8    2
    66    26     9    1
    67    27     9    1
    68    27    29    1
    69    37    36    1
    70    36    38    1
    71    36    39    1
    72    59    60    1
    73    59    61    1
    74    24    25    1
    75     9    42    1
    76    40    39    1
    77    39    42    1
    78    39    41    1
    79    42    44    1
    80    42    43    1
