@<TRIPOS>MOLECULE
CSD_code = HUWKUF | q = 1 | S = 0 | Stoichiometry = C28H48CoN10S2(1+) | MND = 6
 89 94 0 0 0
SMALL
GASTEIGER

@<TRIPOS>ATOM
      1 CO          6.1464    3.7822    4.3033 Co.oh   1  UNL1        0.0000
      2 S           6.1964    2.2077    5.9255 S.3     1  UNL1        0.0000
      3 S           6.0053    5.3882    5.8912 S.3     1  UNL1        0.0000
      4 N           6.4382    5.1672    2.9866 N.pl3   1  UNL1        0.0000
      5 N           5.8077    6.0769    2.2361 N.3     1  UNL1        0.0000
      6 H           4.8010    6.1482    2.2312 H       1  UNL1        0.0000
      7 N           7.9924    3.6537    4.3142 N.pl3   1  UNL1        0.0000
      8 N           8.6463    2.7574    5.0165 N.2     1  UNL1        0.0000
      9 N           8.5073    1.0380    6.5237 N.pl3   1  UNL1        0.0000
     10 N           5.9339    2.3814    2.9943 N.pl3   1  UNL1        0.0000
     11 N           6.6133    1.4721    2.2871 N.3     1  UNL1        0.0000
     12 H           7.6179    1.3935    2.3551 H       1  UNL1        0.0000
     13 N           4.2974    3.8832    4.2364 N.pl3   1  UNL1        0.0000
     14 N           3.5917    4.7284    4.9515 N.2     1  UNL1        0.0000
     15 N           3.6169    6.3376    6.5760 N.pl3   1  UNL1        0.0000
     16 C           6.2413    7.9364    0.6530 C.3     1  UNL1        0.0000
     17 H           5.5798    7.5510   -0.1216 H       1  UNL1        0.0000
     18 H           7.1021    8.3982    0.1798 H       1  UNL1        0.0000
     19 H           5.7001    8.6993    1.2114 H       1  UNL1        0.0000
     20 C           6.6845    6.8480    1.5541 C.3     1  UNL1        0.0000
     21 C           7.9476    6.4040    1.8851 C.2     1  UNL1        0.0000
     22 H           8.8825    6.7863    1.5342 H       1  UNL1        0.0000
     23 C           7.7521    5.3494    2.7934 C.2     1  UNL1        0.0000
     24 C           8.6114    4.4780    3.5250 C.3     1  UNL1        0.0000
     25 H           9.6883    4.4967    3.4418 H       1  UNL1        0.0000
     26 C           7.9180    1.9944    5.8145 C.2     1  UNL1        0.0000
     27 C           9.9245    0.7781    6.3653 C.3     1  UNL1        0.0000
     28 H          10.3448    0.5559    7.3484 H       1  UNL1        0.0000
     29 H          10.3891    1.6836    5.9734 H       1  UNL1        0.0000
     30 C          10.1851   -0.3936    5.4124 C.3     1  UNL1        0.0000
     31 H          11.2642   -0.5358    5.3423 H       1  UNL1        0.0000
     32 H           9.7553   -1.3097    5.8225 H       1  UNL1        0.0000
     33 C           9.6122   -0.1518    4.0171 C.3     1  UNL1        0.0000
     34 H           9.9992    0.7961    3.6357 H       1  UNL1        0.0000
     35 H           8.5236   -0.0723    4.0891 H       1  UNL1        0.0000
     36 C           9.9748   -1.2817    3.0609 C.3     1  UNL1        0.0000
     37 H           9.5758   -1.0949    2.0660 H       1  UNL1        0.0000
     38 H           9.5756   -2.2280    3.4183 H       1  UNL1        0.0000
     39 H          11.0544   -1.3777    2.9795 H       1  UNL1        0.0000
     40 C           7.7701    0.2347    7.4735 C.3     1  UNL1        0.0000
     41 H           8.2823   -0.7233    7.5786 H       1  UNL1        0.0000
     42 H           6.7655    0.0515    7.0808 H       1  UNL1        0.0000
     43 C           7.6657    0.9232    8.8367 C.3     1  UNL1        0.0000
     44 H           7.1548    1.8796    8.7122 H       1  UNL1        0.0000
     45 H           8.6688    1.1254    9.2185 H       1  UNL1        0.0000
     46 C           6.9004    0.0620    9.8377 C.3     1  UNL1        0.0000
     47 H           5.8983   -0.1331    9.4507 H       1  UNL1        0.0000
     48 H           7.4070   -0.8989    9.9508 H       1  UNL1        0.0000
     49 C           6.7970    0.7433   11.1961 C.3     1  UNL1        0.0000
     50 H           6.2489    0.1164   11.8941 H       1  UNL1        0.0000
     51 H           6.2771    1.6944   11.1073 H       1  UNL1        0.0000
     52 H           7.7863    0.9300   11.6074 H       1  UNL1        0.0000
     53 C           6.2845   -0.3964    0.6917 C.3     1  UNL1        0.0000
     54 H           6.7789   -1.1590    1.2929 H       1  UNL1        0.0000
     55 H           7.0036   -0.0175   -0.0332 H       1  UNL1        0.0000
     56 H           5.4589   -0.8568    0.1581 H       1  UNL1        0.0000
     57 C           5.7819    0.6981    1.5535 C.3     1  UNL1        0.0000
     58 C           4.4996    1.1425    1.8005 C.2     1  UNL1        0.0000
     59 H           3.5894    0.7593    1.3905 H       1  UNL1        0.0000
     60 C           4.6353    2.1997    2.7172 C.2     1  UNL1        0.0000
     61 C           3.7306    3.0584    3.4086 C.3     1  UNL1        0.0000
     62 H           2.6581    3.0144    3.2860 H       1  UNL1        0.0000
     63 C           4.2714    5.4863    5.7959 C.2     1  UNL1        0.0000
     64 C           2.1689    6.3986    6.5269 C.3     1  UNL1        0.0000
     65 H           1.8086    6.6998    7.5122 H       1  UNL1        0.0000
     66 H           1.7889    5.4012    6.2981 H       1  UNL1        0.0000
     67 C           1.6820    7.3866    5.4651 C.3     1  UNL1        0.0000
     68 H           2.1153    8.3710    5.6558 H       1  UNL1        0.0000
     69 H           2.0305    7.0476    4.4877 H       1  UNL1        0.0000
     70 C           0.1592    7.4930    5.4576 C.3     1  UNL1        0.0000
     71 H          -0.1837    7.8352    6.4358 H       1  UNL1        0.0000
     72 H          -0.2690    6.5042    5.2829 H       1  UNL1        0.0000
     73 C          -0.3311    8.4568    4.3845 C.3     1  UNL1        0.0000
     74 H          -1.4155    8.5221    4.4008 H       1  UNL1        0.0000
     75 H          -0.0238    8.1204    3.3968 H       1  UNL1        0.0000
     76 H           0.0735    9.4527    4.5496 H       1  UNL1        0.0000
     77 C           4.3068    7.1876    7.5208 C.3     1  UNL1        0.0000
     78 H           3.7092    8.0903    7.6642 H       1  UNL1        0.0000
     79 H           5.2728    7.4682    7.0952 H       1  UNL1        0.0000
     80 C           4.5181    6.4795    8.8625 C.3     1  UNL1        0.0000
     81 H           5.1540    5.6071    8.7026 H       1  UNL1        0.0000
     82 H           3.5519    6.1280    9.2318 H       1  UNL1        0.0000
     83 C           5.1559    7.3911    9.9095 C.3     1  UNL1        0.0000
     84 H           4.5415    8.2851   10.0361 H       1  UNL1        0.0000
     85 H           5.1634    6.8595   10.8627 H       1  UNL1        0.0000
     86 C           6.5827    7.7969    9.5595 C.3     1  UNL1        0.0000
     87 H           6.6067    8.4537    8.6937 H       1  UNL1        0.0000
     88 H           7.1854    6.9182    9.3422 H       1  UNL1        0.0000
     89 H           7.0360    8.3256   10.3939 H       1  UNL1        0.0000
@<TRIPOS>BOND
     1    17    16    1
     2    55    53    1
     3    56    53    1
     4    18    16    1
     5    16    19    1
     6    16    20    1
     7    53    54    1
     8    53    57    1
     9    59    58    1
    10    22    21    1
    11    57    58    1
    12    57    11    1
    13    20    21    1
    14    20     5    1
    15    58    60    2
    16    21    23    2
    17    37    36    1
    18     6     5    1
    19     5     4    1
    20    11    12    1
    21    11    10    1
    22    60    10    1
    23    60    61    1
    24    23     4    1
    25    23    24    1
    26    39    36    1
    27     4     1    1
    28    10     1    1
    29    36    38    1
    30    36    33    1
    31    62    61    1
    32    75    73    1
    33    61    13    1
    34    25    24    1
    35    24     7    1
    36    34    33    1
    37    33    35    1
    38    33    30    1
    39    13     1    1
    40    13    14    1
    41     1     7    1
    42     1     3    1
    43     1     2    1
    44     7     8    1
    45    73    74    1
    46    73    76    1
    47    73    70    1
    48    69    67    1
    49    14    63    2
    50     8    26    2
    51    72    70    1
    52    31    30    1
    53    30    32    1
    54    30    27    1
    55    70    67    1
    56    70    71    1
    57    67    68    1
    58    67    64    1
    59    63     3    1
    60    63    15    1
    61    26     2    1
    62    26     9    1
    63    29    27    1
    64    66    64    1
    65    27     9    1
    66    27    28    1
    67     9    40    1
    68    64    15    1
    69    64    65    1
    70    15    77    1
    71    42    40    1
    72    79    77    1
    73    40    41    1
    74    40    43    1
    75    77    78    1
    76    77    80    1
    77    87    86    1
    78    81    80    1
    79    44    43    1
    80    43    45    1
    81    43    46    1
    82    80    82    1
    83    80    83    1
    84    88    86    1
    85    47    46    1
    86    86    83    1
    87    86    89    1
    88    46    48    1
    89    46    49    1
    90    83    84    1
    91    83    85    1
    92    51    49    1
    93    49    52    1
    94    49    50    1
