@<TRIPOS>MOLECULE
CSD_code = KIPMII | q = 1 | S = 0 | Stoichiometry = C12H14CoN8S4(1+) | MND = 6
 39 44 0 0 0
SMALL
GASTEIGER

@<TRIPOS>ATOM
      1 CO          6.1365   16.4813    5.1926 Co.oh   1  UNL1        0.0000
      2 S           2.0362   15.3082    4.6185 S.3     1  UNL1        0.0000
      3 S           8.0979   17.3408    4.4148 S.3     1  UNL1        0.0000
      4 S           8.0717   12.7267    6.0109 S.3     1  UNL1        0.0000
      5 S           5.4650   18.5645    5.8243 S.3     1  UNL1        0.0000
      6 N           4.3612   15.8216    5.5505 N.pl3   1  UNL1        0.0000
      7 N           5.5290   16.6686    3.4502 N.pl3   1  UNL1        0.0000
      8 N           6.2767   17.1345    2.4709 N.2     1  UNL1        0.0000
      9 N           8.3202   17.9564    1.8619 N.pl3   1  UNL1        0.0000
     10 H           7.9770   18.1039    0.9275 H       1  UNL1        0.0000
     11 H           9.2385   18.2796    2.1137 H       1  UNL1        0.0000
     12 N           6.8427   14.7040    4.9538 N.pl3   1  UNL1        0.0000
     13 N           6.7478   16.3049    6.9356 N.pl3   1  UNL1        0.0000
     14 N           6.6174   17.2498    7.8444 N.2     1  UNL1        0.0000
     15 N           5.8580   19.3546    8.3076 N.pl3   1  UNL1        0.0000
     16 H           5.4661   20.2264    7.9956 H       1  UNL1        0.0000
     17 H           6.2352   19.2805    9.2375 H       1  UNL1        0.0000
     18 C           3.6361   15.3630    6.5953 C.2     1  UNL1        0.0000
     19 H           4.0807   15.2896    7.5719 H       1  UNL1        0.0000
     20 C           2.3559   15.0340    6.2854 C.2     1  UNL1        0.0000
     21 H           1.5936   14.6546    6.9343 H       1  UNL1        0.0000
     22 C           3.6567   15.8535    4.4257 C.2     1  UNL1        0.0000
     23 C           4.2852   16.3231    3.2398 C.2     1  UNL1        0.0000
     24 C           3.5985   16.4309    1.9247 C.3     1  UNL1        0.0000
     25 H           3.1294   17.4104    1.8302 H       1  UNL1        0.0000
     26 H           2.8282   15.6702    1.8289 H       1  UNL1        0.0000
     27 H           4.3286   16.3328    1.1250 H       1  UNL1        0.0000
     28 C           7.5000   17.4843    2.8000 C.2     1  UNL1        0.0000
     29 C           6.9612   13.7764    3.9774 C.2     1  UNL1        0.0000
     30 H           6.5730   13.9733    2.9939 H       1  UNL1        0.0000
     31 C           7.5970   12.6398    4.3608 C.2     1  UNL1        0.0000
     32 H           7.8123   11.7709    3.7735 H       1  UNL1        0.0000
     33 C           7.3816   14.3004    6.0977 C.2     1  UNL1        0.0000
     34 C           7.3428   15.1753    7.2182 C.2     1  UNL1        0.0000
     35 C           7.9334   14.8424    8.5423 C.3     1  UNL1        0.0000
     36 H           9.0079   15.0249    8.5276 H       1  UNL1        0.0000
     37 H           7.7706   13.7942    8.7823 H       1  UNL1        0.0000
     38 H           7.4910   15.4770    9.3056 H       1  UNL1        0.0000
     39 C           6.0341   18.3564    7.4422 C.2     1  UNL1        0.0000
@<TRIPOS>BOND
     1    10     9    1
     2    27    24    1
     3    26    24    1
     4    25    24    1
     5     9    11    1
     6     9    28    1
     7    24    23    1
     8     8    28    2
     9     8     7    1
    10    28     3    1
    11    30    29    1
    12    23     7    1
    13    23    22    2
    14     7     1    1
    15    32    31    1
    16    29    31    2
    17    29    12    1
    18    31     4    1
    19     3     1    1
    20    22     2    1
    21    22     6    1
    22     2    20    1
    23    12     1    1
    24    12    33    1
    25     1     6    1
    26     1     5    1
    27     1    13    1
    28     6    18    1
    29     5    39    1
    30     4    33    1
    31    33    34    2
    32    20    18    2
    33    20    21    1
    34    18    19    1
    35    13    34    1
    36    13    14    1
    37    34    35    1
    38    39    14    2
    39    39    15    1
    40    16    15    1
    41    15    17    1
    42    36    35    1
    43    35    37    1
    44    35    38    1
