@<TRIPOS>MOLECULE
CSD_code = LAXSOV | q = 1 | S = 0 | Stoichiometry = C22H18CoN8S4(1+) | MND = 6
 53 60 0 0 0
SMALL
GASTEIGER

@<TRIPOS>ATOM
      1 CO          5.3950    9.6778    2.3307 Co.oh   1  UNL1        0.0000
      2 S           8.5400    8.5758   -0.4060 S.3     1  UNL1        0.0000
      3 S           3.1976   10.0250    2.8030 S.3     1  UNL1        0.0000
      4 S           6.2758   13.8357    3.0581 S.3     1  UNL1        0.0000
      5 N           7.1544    9.2821    1.6268 N.pl3   1  UNL1        0.0000
      6 N           4.8091    9.3170    0.6111 N.pl3   1  UNL1        0.0000
      7 N           3.5580    9.3737    0.2384 N.2     1  UNL1        0.0000
      8 N           1.3759    9.7682    0.9497 N.pl3   1  UNL1        0.0000
      9 H           0.8211   10.0094    1.7643 H       1  UNL1        0.0000
     10 N           5.6209   11.5789    2.0441 N.pl3   1  UNL1        0.0000
     11 N           5.9799   10.0369    4.0513 N.pl3   1  UNL1        0.0000
     12 S           5.2157    7.5262    3.0444 S.3     1  UNL1        0.0000
     13 N           6.1113    9.1299    4.9829 N.2     1  UNL1        0.0000
     14 N           5.8443    6.8731    5.4929 N.pl3   1  UNL1        0.0000
     15 H           5.5481    5.9847    5.1024 H       1  UNL1        0.0000
     16 C           9.3263    8.8479    1.1007 C.2     1  UNL1        0.0000
     17 H          10.3852    8.7228    1.1967 H       1  UNL1        0.0000
     18 C           8.4344    9.2126    2.0569 C.2     1  UNL1        0.0000
     19 H           8.6748    9.4320    3.0821 H       1  UNL1        0.0000
     20 C           7.0399    8.9710    0.3393 C.2     1  UNL1        0.0000
     21 C           5.7505    8.9899   -0.2336 C.2     1  UNL1        0.0000
     22 H           5.5455    8.7421   -1.2644 H       1  UNL1        0.0000
     23 C           2.6867    9.6870    1.1780 C.2     1  UNL1        0.0000
     24 C           0.6334    9.5558   -0.2164 C.ar    1  UNL1        0.0000
     25 C           1.2066    9.1990   -1.4330 C.ar    1  UNL1        0.0000
     26 H           2.2730    9.0706   -1.5013 H       1  UNL1        0.0000
     27 C           0.3977    9.0083   -2.5386 C.ar    1  UNL1        0.0000
     28 H           0.8457    8.7300   -3.4799 H       1  UNL1        0.0000
     29 C          -0.9750    9.1696   -2.4467 C.ar    1  UNL1        0.0000
     30 H          -1.5977    9.0187   -3.3142 H       1  UNL1        0.0000
     31 C          -1.5457    9.5247   -1.2346 C.ar    1  UNL1        0.0000
     32 H          -2.6139    9.6516   -1.1543 H       1  UNL1        0.0000
     33 C          -0.7490    9.7178   -0.1233 C.ar    1  UNL1        0.0000
     34 H          -1.1945    9.9937    0.8217 H       1  UNL1        0.0000
     35 C           5.7551   13.7638    1.4191 C.2     1  UNL1        0.0000
     36 H           5.7000   14.6506    0.8221 H       1  UNL1        0.0000
     37 C           5.4510   12.4904    1.0600 C.2     1  UNL1        0.0000
     38 H           5.0965   12.1837    0.0919 H       1  UNL1        0.0000
     39 C           6.0540   12.1328    3.1723 C.2     1  UNL1        0.0000
     40 C           6.2592   11.2912    4.2864 C.2     1  UNL1        0.0000
     41 H           6.5967   11.6404    5.2508 H       1  UNL1        0.0000
     42 C           5.7750    7.8997    4.6455 C.2     1  UNL1        0.0000
     43 C           6.2414    6.8147    6.8328 C.ar    1  UNL1        0.0000
     44 C           6.2109    5.5623    7.4465 C.ar    1  UNL1        0.0000
     45 H           5.8884    4.6971    6.8851 H       1  UNL1        0.0000
     46 C           6.5904    5.4285    8.7675 C.ar    1  UNL1        0.0000
     47 H           6.5638    4.4566    9.2349 H       1  UNL1        0.0000
     48 C           7.0026    6.5382    9.4887 C.ar    1  UNL1        0.0000
     49 H           7.2985    6.4330   10.5205 H       1  UNL1        0.0000
     50 C           7.0314    7.7817    8.8793 C.ar    1  UNL1        0.0000
     51 H           7.3497    8.6483    9.4380 H       1  UNL1        0.0000
     52 C           6.6545    7.9289    7.5567 C.ar    1  UNL1        0.0000
     53 H           6.6727    8.8948    7.0821 H       1  UNL1        0.0000
@<TRIPOS>BOND
     1    28    27    1
     2    30    29    1
     3    27    29   ar
     4    27    25   ar
     5    29    31   ar
     6    26    25    1
     7    25    24   ar
     8    22    21    1
     9    31    32    1
    10    31    33   ar
    11     2    20    1
    12     2    16    1
    13    21    20    2
    14    21     6    1
    15    24    33   ar
    16    24     8    1
    17    33    34    1
    18    38    37    1
    19     7     6    1
    20     7    23    2
    21    20     5    1
    22     6     1    1
    23    36    35    1
    24     8    23    1
    25     8     9    1
    26    37    35    2
    27    37    10    1
    28    16    17    1
    29    16    18    2
    30    23     3    1
    31    35     4    1
    32     5    18    1
    33     5     1    1
    34    10     1    1
    35    10    39    1
    36    18    19    1
    37     1     3    1
    38     1    12    1
    39     1    11    1
    40    12    42    1
    41     4    39    1
    42    39    40    2
    43    11    40    1
    44    11    13    1
    45    40    41    1
    46    42    13    2
    47    42    14    1
    48    15    14    1
    49    14    43    1
    50    43    44   ar
    51    43    52   ar
    52    45    44    1
    53    53    52    1
    54    44    46   ar
    55    52    50   ar
    56    46    47    1
    57    46    48   ar
    58    50    51    1
    59    50    48   ar
    60    48    49    1
