@<TRIPOS>MOLECULE
CSD_code = LITGEA | q = -1 | S = 0 | Stoichiometry = C24H16CoN4O2S2(1-) | MND = 6
 49 56 0 0 0
SMALL
GASTEIGER

@<TRIPOS>ATOM
      1 CO         10.4608    7.0145   10.4697 Co.oh   1  UNL1        0.0000
      2 S          10.7521    8.2628    8.6077 S.3     1  UNL1        0.0000
      3 S           8.2937    6.6312    9.9534 S.3     1  UNL1        0.0000
      4 N          10.2531    5.8081   11.9226 N.pl3   1  UNL1        0.0000
      5 N          11.0445    5.5229    9.4942 N.am    1  UNL1        0.0000
      6 N          12.2221    7.5049   10.9862 N.pl3   1  UNL1        0.0000
      7 N           9.9016    8.4947   11.4765 N.am    1  UNL1        0.0000
      8 O          11.6489    3.3050    9.8501 O.2     1  UNL1        0.0000
      9 O          10.7708   10.0319   12.9904 O.2     1  UNL1        0.0000
     10 C           9.7622    5.9982   13.1442 C.3     1  UNL1        0.0000
     11 H           9.4315    6.9978   13.3908 H       1  UNL1        0.0000
     12 C           9.6608    4.9807   14.0752 C.2     1  UNL1        0.0000
     13 H           9.2487    5.1894   15.0505 H       1  UNL1        0.0000
     14 C          10.0921    3.7050   13.7338 C.2     1  UNL1        0.0000
     15 H          10.0256    2.8909   14.4414 H       1  UNL1        0.0000
     16 C          10.6018    3.5071   12.4667 C.2     1  UNL1        0.0000
     17 H          10.9557    2.5491   12.1182 H       1  UNL1        0.0000
     18 C          10.6641    4.5801   11.5835 C.2     1  UNL1        0.0000
     19 C          11.1744    4.3932   10.1934 C.2     1  UNL1        0.0000
     20 C          11.3675    5.6494    8.1513 C.ar    1  UNL1        0.0000
     21 C          11.7738    4.6012    7.3258 C.ar    1  UNL1        0.0000
     22 H          11.8459    3.6090    7.7396 H       1  UNL1        0.0000
     23 C          12.0773    4.8303    5.9961 C.ar    1  UNL1        0.0000
     24 H          12.3878    4.0027    5.3725 H       1  UNL1        0.0000
     25 C          11.9845    6.1062    5.4624 C.ar    1  UNL1        0.0000
     26 H          12.2236    6.2815    4.4217 H       1  UNL1        0.0000
     27 C          11.5805    7.1575    6.2627 C.ar    1  UNL1        0.0000
     28 H          11.4948    8.1590    5.8673 H       1  UNL1        0.0000
     29 C          11.2687    6.9415    7.5988 C.ar    1  UNL1        0.0000
     30 C          13.4012    6.9982   10.6364 C.3     1  UNL1        0.0000
     31 H          13.3923    6.1554    9.9589 H       1  UNL1        0.0000
     32 C          14.6006    7.5099   11.0969 C.2     1  UNL1        0.0000
     33 H          15.5291    7.0638   10.7756 H       1  UNL1        0.0000
     34 C          14.5851    8.5934   11.9663 C.2     1  UNL1        0.0000
     35 H          15.5070    9.0135   12.3425 H       1  UNL1        0.0000
     36 C          13.3623    9.1192   12.3302 C.2     1  UNL1        0.0000
     37 H          13.2591    9.9611   12.9973 H       1  UNL1        0.0000
     38 C          12.1991    8.5536   11.8179 C.2     1  UNL1        0.0000
     39 C          10.8618    9.1212   12.1601 C.2     1  UNL1        0.0000
     40 C           8.5589    8.8386   11.5262 C.ar    1  UNL1        0.0000
     41 C           8.0413    9.9382   12.2103 C.ar    1  UNL1        0.0000
     42 H           8.7168   10.5858   12.7444 H       1  UNL1        0.0000
     43 C           6.6825   10.1956   12.2022 C.ar    1  UNL1        0.0000
     44 H           6.3021   11.0554   12.7372 H       1  UNL1        0.0000
     45 C           5.8123    9.3638   11.5149 C.ar    1  UNL1        0.0000
     46 H           4.7498    9.5683   11.5115 H       1  UNL1        0.0000
     47 C           6.3057    8.2714   10.8277 C.ar    1  UNL1        0.0000
     48 H           5.6476    7.6130   10.2799 H       1  UNL1        0.0000
     49 C           7.6683    8.0027   10.8242 C.ar    1  UNL1        0.0000
@<TRIPOS>BOND
     1    26    25    1
     2    24    23    1
     3    25    23   ar
     4    25    27   ar
     5    28    27    1
     6    23    21   ar
     7    27    29   ar
     8    21    22    1
     9    21    20   ar
    10    29    20   ar
    11    29     2    1
    12    20     5    1
    13     2     1    1
    14     5    19   am
    15     5     1    1
    16     8    19    2
    17     3     1    1
    18     3    49    1
    19    31    30    1
    20    19    18    1
    21    48    47    1
    22     1     6    1
    23     1     7    1
    24     1     4    1
    25    30     6    1
    26    30    32    1
    27    33    32    1
    28    49    47   ar
    29    49    40   ar
    30    47    45   ar
    31     6    38    1
    32    32    34    2
    33     7    40    1
    34     7    39   am
    35    46    45    1
    36    45    43   ar
    37    40    41   ar
    38    18     4    1
    39    18    16    2
    40    38    39    1
    41    38    36    2
    42     4    10    1
    43    34    36    1
    44    34    35    1
    45    17    16    1
    46    39     9    2
    47    43    41   ar
    48    43    44    1
    49    41    42    1
    50    36    37    1
    51    16    14    1
    52    10    11    1
    53    10    12    1
    54    14    12    2
    55    14    15    1
    56    12    13    1
