@<TRIPOS>MOLECULE
CSD_code = SIWDIN | q = 1 | S = 0 | Stoichiometry = C24H24CoN6S2(1+) | MND = 6
 57 64 0 0 0
SMALL
GASTEIGER

@<TRIPOS>ATOM
      1 CO         -0.9197    9.6257    2.8702 Co.oh   1  UNL1        0.0000
      2 S          -2.3843    7.9557    2.1746 S.3     1  UNL1        0.0000
      3 N          -0.3076    9.6900    1.0839 N.pl3   1  UNL1        0.0000
      4 C          -1.7794    7.9172    0.4904 C.ar    1  UNL1        0.0000
      5 C          -2.2984    6.9940   -0.3981 C.ar    1  UNL1        0.0000
      6 H          -3.0509    6.2954   -0.0670 H       1  UNL1        0.0000
      7 C          -1.8415    6.9732   -1.7043 C.ar    1  UNL1        0.0000
      8 H          -2.2434    6.2585   -2.4041 H       1  UNL1        0.0000
      9 C           0.9071   11.3835    2.0105 C.ar    1  UNL1        0.0000
     10 C           1.7560   12.4395    2.3817 C.ar    1  UNL1        0.0000
     11 H           2.3820   13.0299    1.7460 H       1  UNL1        0.0000
     12 C           0.5293   10.6643    0.8666 C.3     1  UNL1        0.0000
     13 H           0.9175   10.9085   -0.1138 H       1  UNL1        0.0000
     14 C          -0.7849    8.8251    0.1105 C.ar    1  UNL1        0.0000
     15 C          -0.3301    8.7809   -1.2112 C.ar    1  UNL1        0.0000
     16 H           0.4418    9.4554   -1.5446 H       1  UNL1        0.0000
     17 C          -0.8598    7.8685   -2.1024 C.ar    1  UNL1        0.0000
     18 H          -0.4985    7.8518   -3.1187 H       1  UNL1        0.0000
     19 C          -4.0456    8.6301    1.8540 C.3     1  UNL1        0.0000
     20 H          -4.6206    7.8753    1.3260 H       1  UNL1        0.0000
     21 H          -3.9688    9.5372    1.2621 H       1  UNL1        0.0000
     22 H          -4.5022    8.8368    2.8169 H       1  UNL1        0.0000
     23 N           0.3187   10.9391    3.1592 N.ar    1  UNL1        0.0000
     24 N           0.7096   11.6182    4.1897 N.ar    1  UNL1        0.0000
     25 C           1.5950   12.5444    3.7585 C.ar    1  UNL1        0.0000
     26 C           2.2565   13.4730    4.7081 C.3     1  UNL1        0.0000
     27 H           1.5743   13.7276    5.5145 H       1  UNL1        0.0000
     28 H           2.5685   14.3773    4.1932 H       1  UNL1        0.0000
     29 H           3.1376   13.0047    5.1463 H       1  UNL1        0.0000
     30 S           0.5443    7.9546    3.5656 S.3     1  UNL1        0.0000
     31 N          -1.5325    9.6896    4.6562 N.pl3   1  UNL1        0.0000
     32 C          -0.0604    7.9171    5.2498 C.ar    1  UNL1        0.0000
     33 C           0.4588    6.9941    6.1385 C.ar    1  UNL1        0.0000
     34 H           1.2110    6.2953    5.8073 H       1  UNL1        0.0000
     35 C           0.0018    6.9733    7.4447 C.ar    1  UNL1        0.0000
     36 H           0.4035    6.2585    8.1445 H       1  UNL1        0.0000
     37 C          -2.7470   11.3831    3.7296 C.ar    1  UNL1        0.0000
     38 C          -3.5957   12.4392    3.3585 C.ar    1  UNL1        0.0000
     39 H          -4.2217   13.0297    3.9942 H       1  UNL1        0.0000
     40 C          -2.3693   10.6639    4.8736 C.3     1  UNL1        0.0000
     41 H          -2.7572   10.9084    5.8540 H       1  UNL1        0.0000
     42 C          -1.0551    8.8249    5.6296 C.ar    1  UNL1        0.0000
     43 C          -1.5098    8.7808    6.9514 C.ar    1  UNL1        0.0000
     44 H          -2.2817    9.4554    7.2847 H       1  UNL1        0.0000
     45 C          -0.9801    7.8685    7.8426 C.ar    1  UNL1        0.0000
     46 H          -1.3414    7.8519    8.8590 H       1  UNL1        0.0000
     47 C           2.2052    8.6299    3.8862 C.3     1  UNL1        0.0000
     48 H           2.7804    7.8754    4.4142 H       1  UNL1        0.0000
     49 H           2.1285    9.5371    4.4780 H       1  UNL1        0.0000
     50 H           2.6618    8.8366    2.9233 H       1  UNL1        0.0000
     51 N          -2.1584   10.9387    2.5811 N.ar    1  UNL1        0.0000
     52 N          -2.5494   11.6178    1.5506 N.ar    1  UNL1        0.0000
     53 C          -3.4347   12.5441    1.9817 C.ar    1  UNL1        0.0000
     54 C          -4.0962   13.4729    1.0322 C.3     1  UNL1        0.0000
     55 H          -3.4140   13.7278    0.2260 H       1  UNL1        0.0000
     56 H          -4.4085   14.3770    1.5470 H       1  UNL1        0.0000
     57 H          -4.9771   13.0045    0.5937 H       1  UNL1        0.0000
@<TRIPOS>BOND
     1    18    17    1
     2     8     7    1
     3    17     7   ar
     4    17    15   ar
     5     7     5   ar
     6    16    15    1
     7    15    14   ar
     8     5     6    1
     9     5     4   ar
    10    13    12    1
    11    14     4   ar
    12    14     3    1
    13    55    54    1
    14     4     2    1
    15    57    54    1
    16    12     3    1
    17    12     9    1
    18    54    56    1
    19    54    53    1
    20     3     1    1
    21    21    19    1
    22    20    19    1
    23    52    53   ar
    24    52    51   ar
    25    11    10    1
    26    19     2    1
    27    19    22    1
    28    53    38   ar
    29     9    10   ar
    30     9    23   ar
    31     2     1    1
    32    10    25   ar
    33    51     1    1
    34    51    37   ar
    35     1    23    1
    36     1    30    1
    37     1    31    1
    38    50    47    1
    39    23    24   ar
    40    38    37   ar
    41    38    39    1
    42    30    47    1
    43    30    32    1
    44    37    40    1
    45    25    24   ar
    46    25    26    1
    47    47    48    1
    48    47    49    1
    49    28    26    1
    50    31    40    1
    51    31    42    1
    52    26    29    1
    53    26    27    1
    54    40    41    1
    55    32    42   ar
    56    32    33   ar
    57    42    43   ar
    58    34    33    1
    59    33    35   ar
    60    43    44    1
    61    43    45   ar
    62    35    45   ar
    63    35    36    1
    64    45    46    1
