@<TRIPOS>MOLECULE
CSD_code = TEXROE | q = 1 | S = 0 | Stoichiometry = C28H26CoN8O2S2(1+) | MND = 6
 67 74 0 0 0
SMALL
GASTEIGER

@<TRIPOS>ATOM
      1 CO          5.6557    3.4556    2.7003 Co.oh   1  UNL1        0.0000
      2 S           3.9776    1.9225    2.8848 S.3     1  UNL1        0.0000
      3 S           4.5562    4.8757    4.1041 S.3     1  UNL1        0.0000
      4 N           4.8179    4.3809    1.3504 N.pl3   1  UNL1        0.0000
      5 N           6.4515    2.5282    4.0737 N.pl3   1  UNL1        0.0000
      6 C           4.7741    1.0647    4.1685 C.2     1  UNL1        0.0000
      7 N           6.4201    2.4042    1.2734 N.pl3   1  UNL1        0.0000
      8 N           4.0094    5.3922    1.5410 N.2     1  UNL1        0.0000
      9 N           7.2065    4.5999    2.8035 N.pl3   1  UNL1        0.0000
     10 C           3.7917    5.7281    2.7979 C.2     1  UNL1        0.0000
     11 C           5.0693    3.9439    0.1493 C.2     1  UNL1        0.0000
     12 H           4.6098    4.3882   -0.7225 H       1  UNL1        0.0000
     13 N           5.9434    1.4597    4.6325 N.2     1  UNL1        0.0000
     14 N           4.1334   -0.0050    4.6407 N.pl3   1  UNL1        0.0000
     15 H           3.2370   -0.1856    4.2020 H       1  UNL1        0.0000
     16 N           2.9858    6.7304    3.1489 N.pl3   1  UNL1        0.0000
     17 H           2.9009    6.8704    4.1498 H       1  UNL1        0.0000
     18 C           4.4880   -0.9144    5.6396 C.ar    1  UNL1        0.0000
     19 O           5.4520   -3.6888    8.5580 O.3     1  UNL1        0.0000
     20 O          -0.1230   10.3629    0.3632 O.3     1  UNL1        0.0000
     21 C           7.5835    3.0232    4.4859 C.2     1  UNL1        0.0000
     22 H           8.1278    2.5820    5.3091 H       1  UNL1        0.0000
     23 C           5.9603    2.8360    0.0749 C.2     1  UNL1        0.0000
     24 C           8.0301    4.1855    3.7956 C.2     1  UNL1        0.0000
     25 C           2.1852    7.5689    0.9845 C.ar    1  UNL1        0.0000
     26 H           2.7587    6.8247    0.4590 H       1  UNL1        0.0000
     27 C           5.0699   -2.8236    7.5975 C.ar    1  UNL1        0.0000
     28 C           8.6807    6.4114    2.3521 C.2     1  UNL1        0.0000
     29 H           8.8972    7.2857    1.7612 H       1  UNL1        0.0000
     30 C           2.2260    7.6084    2.3732 C.ar    1  UNL1        0.0000
     31 C           4.6170   -4.7819    8.8715 C.3     1  UNL1        0.0000
     32 H           3.6424   -4.4482    9.2391 H       1  UNL1        0.0000
     33 H           5.1321   -5.3265    9.6605 H       1  UNL1        0.0000
     34 H           4.4789   -5.4399    8.0085 H       1  UNL1        0.0000
     35 C           5.9488   -1.7643    7.3410 C.ar    1  UNL1        0.0000
     36 H           6.8554   -1.7062    7.9211 H       1  UNL1        0.0000
     37 C           5.6673   -0.8231    6.3789 C.ar    1  UNL1        0.0000
     38 H           6.3482   -0.0109    6.1923 H       1  UNL1        0.0000
     39 C           7.5318    5.6839    2.1064 C.2     1  UNL1        0.0000
     40 H           6.8502    5.9917    1.3252 H       1  UNL1        0.0000
     41 C           7.2476    1.3646    1.3099 C.2     1  UNL1        0.0000
     42 H           7.5915    1.0407    2.2827 H       1  UNL1        0.0000
     43 C           3.6078   -1.9634    5.8944 C.ar    1  UNL1        0.0000
     44 H           2.6893   -2.0420    5.3304 H       1  UNL1        0.0000
     45 C           1.4734    8.5733    3.0491 C.ar    1  UNL1        0.0000
     46 H           1.4953    8.6125    4.1284 H       1  UNL1        0.0000
     47 C           0.6605    9.4367    0.9511 C.ar    1  UNL1        0.0000
     48 C           7.1975    1.1326   -1.0686 C.2     1  UNL1        0.0000
     49 H           7.5018    0.6291   -1.9726 H       1  UNL1        0.0000
     50 C           3.8894   -2.9095    6.8594 C.ar    1  UNL1        0.0000
     51 H           3.1848   -3.7073    7.0289 H       1  UNL1        0.0000
     52 C           1.4109    8.4720    0.2803 C.ar    1  UNL1        0.0000
     53 H           1.3988    8.4137   -0.7960 H       1  UNL1        0.0000
     54 C           6.3414    2.2107   -1.1181 C.2     1  UNL1        0.0000
     55 H           5.9522    2.5805   -2.0526 H       1  UNL1        0.0000
     56 C           9.5369    5.9985    3.3690 C.2     1  UNL1        0.0000
     57 H          10.4377    6.5514    3.5840 H       1  UNL1        0.0000
     58 C           0.7046    9.4718    2.3508 C.ar    1  UNL1        0.0000
     59 H           0.1204   10.2194    2.8618 H       1  UNL1        0.0000
     60 C           7.6611    0.7004    0.1707 C.2     1  UNL1        0.0000
     61 H           8.3292   -0.1404    0.2542 H       1  UNL1        0.0000
     62 C           9.2105    4.8751    4.0963 C.2     1  UNL1        0.0000
     63 H           9.8386    4.5174    4.8958 H       1  UNL1        0.0000
     64 C          -0.2247   10.3868   -1.0433 C.3     1  UNL1        0.0000
     65 H           0.7456   10.5767   -1.5114 H       1  UNL1        0.0000
     66 H          -0.9020   11.2068   -1.2737 H       1  UNL1        0.0000
     67 H          -0.6428    9.4527   -1.4297 H       1  UNL1        0.0000
@<TRIPOS>BOND
     1    55    54    1
     2    49    48    1
     3    65    64    1
     4    67    64    1
     5    66    64    1
     6    54    48    2
     7    54    23    1
     8    48    60    1
     9    64    20    1
    10    53    52    1
    11    12    11    1
    12    23    11    2
    13    23     7    1
    14    11     4    1
    15    60    61    1
    16    60    41    2
    17    52    47   ar
    18    52    25   ar
    19    20    47    1
    20    26    25    1
    21    47    58   ar
    22    25    30   ar
    23     7    41    1
    24     7     1    1
    25    41    42    1
    26    40    39    1
    27     4     8    1
    28     4     1    1
    29     8    10    2
    30    29    28    1
    31    39    28    2
    32    39     9    1
    33    58    59    1
    34    58    45   ar
    35    28    56    1
    36    30    45   ar
    37    30    16    1
    38     1     9    1
    39     1     2    1
    40     1     5    1
    41     1     3    1
    42    10    16    1
    43    10     3    1
    44     9    24    1
    45     2     6    1
    46    45    46    1
    47    16    17    1
    48    56    57    1
    49    56    62    2
    50    24    62    1
    51    24    21    2
    52     5    21    1
    53     5    13    1
    54    62    63    1
    55     6    13    2
    56     6    14    1
    57    15    14    1
    58    21    22    1
    59    14    18    1
    60    44    43    1
    61    18    43   ar
    62    18    37   ar
    63    43    50   ar
    64    38    37    1
    65    37    35   ar
    66    50    51    1
    67    50    27   ar
    68    35    27   ar
    69    35    36    1
    70    27    19    1
    71    34    31    1
    72    19    31    1
    73    31    32    1
    74    31    33    1
