@<TRIPOS>MOLECULE
CSD_code = UGUHUB | q = 1 | S = 0 | Stoichiometry = C26H24CoN10S2(1+) | MND = 6
 63 70 0 0 0
SMALL
GASTEIGER

@<TRIPOS>ATOM
      1 CO          5.3052    1.9003    9.2234 Co.oh   1  UNL1        0.0000
      2 S           7.2376    1.2813    8.1838 S.3     1  UNL1        0.0000
      3 S           6.4574    3.3121   10.5979 S.3     1  UNL1        0.0000
      4 N           3.7576    2.1866   10.3054 N.pl3   1  UNL1        0.0000
      5 N           1.7168    2.2586   12.1726 N.2     1  UNL1        0.0000
      6 N           5.5931    0.4424   10.3198 N.pl3   1  UNL1        0.0000
      7 N           6.6034   -0.3861   10.1721 N.2     1  UNL1        0.0000
      8 N           8.5294   -0.8515    8.9523 N.pl3   1  UNL1        0.0000
      9 H           9.1348   -0.4819    8.2274 H       1  UNL1        0.0000
     10 N           4.3286    0.9715    7.8746 N.pl3   1  UNL1        0.0000
     11 N           2.9671    0.0357    5.6557 N.2     1  UNL1        0.0000
     12 N           5.0696    3.3761    8.1407 N.pl3   1  UNL1        0.0000
     13 N           5.5437    4.5683    8.4250 N.2     1  UNL1        0.0000
     14 N           6.7628    5.8232    9.9580 N.pl3   1  UNL1        0.0000
     15 H           7.2185    5.7744   10.8628 H       1  UNL1        0.0000
     16 C           2.8113    3.1192   10.2549 C.3     1  UNL1        0.0000
     17 H           2.8630    3.8561    9.4661 H       1  UNL1        0.0000
     18 C           1.7915    3.1516   11.1958 C.2     1  UNL1        0.0000
     19 H           1.0225    3.9079   11.1654 H       1  UNL1        0.0000
     20 C           2.6419    1.3350   12.2313 C.2     1  UNL1        0.0000
     21 H           2.5648    0.6162   13.0332 H       1  UNL1        0.0000
     22 C           3.6964    1.2685   11.2996 C.2     1  UNL1        0.0000
     23 C           4.7461    0.2960   11.3072 C.3     1  UNL1        0.0000
     24 C           4.8668   -0.7659   12.3464 C.3     1  UNL1        0.0000
     25 H           5.8227   -1.2701   12.2359 H       1  UNL1        0.0000
     26 H           4.0645   -1.4966   12.2476 H       1  UNL1        0.0000
     27 H           4.8099   -0.3294   13.3414 H       1  UNL1        0.0000
     28 C           7.4514   -0.1063    9.2072 C.2     1  UNL1        0.0000
     29 C           8.9871   -2.0292    9.5515 C.ar    1  UNL1        0.0000
     30 C           8.2253   -2.7723   10.4473 C.ar    1  UNL1        0.0000
     31 H           7.2343   -2.4403   10.7044 H       1  UNL1        0.0000
     32 C           8.7455   -3.9326   10.9910 C.ar    1  UNL1        0.0000
     33 H           8.1503   -4.5056   11.6853 H       1  UNL1        0.0000
     34 C          10.0161   -4.3642   10.6482 C.ar    1  UNL1        0.0000
     35 H          10.4146   -5.2701   11.0765 H       1  UNL1        0.0000
     36 C          10.7719   -3.6293    9.7483 C.ar    1  UNL1        0.0000
     37 H          11.7609   -3.9607    9.4728 H       1  UNL1        0.0000
     38 C          10.2627   -2.4691    9.1990 C.ar    1  UNL1        0.0000
     39 H          10.8527   -1.8965    8.4978 H       1  UNL1        0.0000
     40 C           3.9914   -0.3098    7.7642 C.3     1  UNL1        0.0000
     41 H           4.2735   -0.9818    8.5622 H       1  UNL1        0.0000
     42 C           3.3066   -0.7732    6.6496 C.2     1  UNL1        0.0000
     43 H           3.0299   -1.8114    6.5507 H       1  UNL1        0.0000
     44 C           3.2944    1.2987    5.7531 C.2     1  UNL1        0.0000
     45 H           3.0186    1.9388    4.9286 H       1  UNL1        0.0000
     46 C           3.9837    1.8122    6.8695 C.2     1  UNL1        0.0000
     47 C           4.3930    3.1726    7.0378 C.3     1  UNL1        0.0000
     48 C           4.0987    4.2489    6.0493 C.3     1  UNL1        0.0000
     49 H           3.0726    4.1796    5.6958 H       1  UNL1        0.0000
     50 H           4.7642    4.1662    5.1902 H       1  UNL1        0.0000
     51 H           4.2562    5.2184    6.5148 H       1  UNL1        0.0000
     52 C           6.2238    4.6739    9.5457 C.2     1  UNL1        0.0000
     53 C           6.8011    7.0826    9.3505 C.ar    1  UNL1        0.0000
     54 C           6.4280    7.2999    8.0283 C.ar    1  UNL1        0.0000
     55 H           6.1005    6.4702    7.4261 H       1  UNL1        0.0000
     56 C           6.5018    8.5748    7.4974 C.ar    1  UNL1        0.0000
     57 H           6.2152    8.7382    6.4699 H       1  UNL1        0.0000
     58 C           6.9446    9.6360    8.2695 C.ar    1  UNL1        0.0000
     59 H           6.9986   10.6274    7.8482 H       1  UNL1        0.0000
     60 C           7.3256    9.4179    9.5842 C.ar    1  UNL1        0.0000
     61 H           7.6783   10.2378   10.1900 H       1  UNL1        0.0000
     62 C           7.2584    8.1488   10.1245 C.ar    1  UNL1        0.0000
     63 H           7.5580    7.9783   11.1487 H       1  UNL1        0.0000
@<TRIPOS>BOND
     1    45    44    1
     2    50    48    1
     3    11    44    1
     4    11    42    2
     5    49    48    1
     6    44    46    2
     7    48    51    1
     8    48    47    1
     9    57    56    1
    10    43    42    1
    11    42    40    1
    12    46    47    1
    13    46    10    1
    14    47    12    1
    15    55    54    1
    16    56    54   ar
    17    56    58   ar
    18    40    10    1
    19    40    41    1
    20    59    58    1
    21    10     1    1
    22    54    53   ar
    23    12    13    1
    24    12     1    1
    25     2    28    1
    26     2     1    1
    27     9     8    1
    28    58    60   ar
    29    13    52    2
    30    39    38    1
    31     8    28    1
    32     8    29    1
    33    38    29   ar
    34    38    36   ar
    35    28     7    2
    36     1     4    1
    37     1     6    1
    38     1     3    1
    39    53    14    1
    40    53    62   ar
    41    17    16    1
    42    37    36    1
    43    52    14    1
    44    52     3    1
    45    29    30   ar
    46    60    62   ar
    47    60    61    1
    48    36    34   ar
    49    14    15    1
    50    62    63    1
    51     7     6    1
    52    16     4    1
    53    16    18    1
    54     4    22    1
    55     6    23    1
    56    30    31    1
    57    30    32   ar
    58    34    32   ar
    59    34    35    1
    60    32    33    1
    61    19    18    1
    62    18     5    2
    63    22    23    1
    64    22    20    2
    65    23    24    1
    66     5    20    1
    67    20    21    1
    68    25    24    1
    69    26    24    1
    70    24    27    1
