@<TRIPOS>MOLECULE
CSD_code = UQEMEJ | q = 1 | S = 0 | Stoichiometry = C12H18CoN8S4(1+) | MND = 6
 43 48 0 0 0
SMALL
GASTEIGER

@<TRIPOS>ATOM
      1 CO          2.8002   11.4936    3.7270 Co.oh   1  UNL1        0.0000
      2 S           3.5644   12.3330    5.7068 S.3     1  UNL1        0.0000
      3 S           2.8818   13.5780    2.8026 S.3     1  UNL1        0.0000
      4 S           0.6360    8.4033    5.8495 S.3     1  UNL1        0.0000
      5 S           3.5547    9.7316   -0.1523 S.3     1  UNL1        0.0000
      6 N           4.5761   11.1094    3.3662 N.pl3   1  UNL1        0.0000
      7 N           0.4506   13.0147    3.7583 N.2     1  UNL1        0.0000
      8 N           2.4876   10.7544    1.9748 N.pl3   1  UNL1        0.0000
      9 C           1.3418   10.6399    1.1048 C.3     1  UNL1        0.0000
     10 H           1.0264   11.6504    0.8163 H       1  UNL1        0.0000
     11 H           0.5146   10.1725    1.6463 H       1  UNL1        0.0000
     12 N           1.0256   11.8781    4.0892 N.pl3   1  UNL1        0.0000
     13 C           3.6152   10.3891    1.4436 C.2     1  UNL1        0.0000
     14 N           5.5554   11.3710    4.2058 N.2     1  UNL1        0.0000
     15 N           2.4143    9.8248    4.6141 N.pl3   1  UNL1        0.0000
     16 N           6.1460   12.2527    6.2294 N.pl3   1  UNL1        0.0000
     17 H           7.1152   12.0963    6.0077 H       1  UNL1        0.0000
     18 H           5.8994   12.7537    7.0658 H       1  UNL1        0.0000
     19 C           4.8146   10.5676    2.2012 C.2     1  UNL1        0.0000
     20 C           1.2212   13.8946    3.1563 C.2     1  UNL1        0.0000
     21 C           6.1638   10.1939    1.7001 C.3     1  UNL1        0.0000
     22 H           6.9210   10.6823    2.3070 H       1  UNL1        0.0000
     23 H           6.2733   10.4874    0.6583 H       1  UNL1        0.0000
     24 H           6.3076    9.1151    1.7601 H       1  UNL1        0.0000
     25 N           0.7068   15.0666    2.7855 N.pl3   1  UNL1        0.0000
     26 H          -0.2385   15.2984    3.0419 H       1  UNL1        0.0000
     27 H           1.3032   15.7725    2.3883 H       1  UNL1        0.0000
     28 C           1.7265    9.8124   -0.1306 C.3     1  UNL1        0.0000
     29 H           1.3904   10.2669   -1.0590 H       1  UNL1        0.0000
     30 H           1.3564    8.7892   -0.0769 H       1  UNL1        0.0000
     31 C          -1.0636   11.0679    5.1360 C.3     1  UNL1        0.0000
     32 H          -1.5718   11.7781    4.4887 H       1  UNL1        0.0000
     33 H          -1.1237   11.4386    6.1594 H       1  UNL1        0.0000
     34 H          -1.5553   10.0989    5.0982 H       1  UNL1        0.0000
     35 C           0.3594   10.9490    4.7224 C.2     1  UNL1        0.0000
     36 C           1.1755    9.8096    5.0044 C.2     1  UNL1        0.0000
     37 C           3.1952    8.6823    5.0227 C.3     1  UNL1        0.0000
     38 H           3.9115    9.0096    5.7865 H       1  UNL1        0.0000
     39 H           3.7655    8.3045    4.1694 H       1  UNL1        0.0000
     40 C           5.2074   11.9563    5.3312 C.2     1  UNL1        0.0000
     41 C           2.2575    7.5995    5.5782 C.3     1  UNL1        0.0000
     42 H           2.6028    7.1945    6.5261 H       1  UNL1        0.0000
     43 H           2.1025    6.7828    4.8742 H       1  UNL1        0.0000
@<TRIPOS>BOND
     1    29    28    1
     2     5    28    1
     3     5    13    1
     4    28    30    1
     5    28     9    1
     6    23    21    1
     7    10     9    1
     8     9    11    1
     9     9     8    1
    10    13     8    1
    11    13    19    2
    12    21    24    1
    13    21    19    1
    14    21    22    1
    15     8     1    1
    16    19     6    1
    17    27    25    1
    18    25    26    1
    19    25    20    1
    20     3    20    1
    21     3     1    1
    22    20     7    2
    23     6     1    1
    24     6    14    1
    25     1    12    1
    26     1    15    1
    27     1     2    1
    28     7    12    1
    29    12    35    1
    30    39    37    1
    31    14    40    2
    32    32    31    1
    33    15    36    1
    34    15    37    1
    35    35    36    2
    36    35    31    1
    37    43    41    1
    38    36     4    1
    39    37    41    1
    40    37    38    1
    41    34    31    1
    42    31    33    1
    43    40     2    1
    44    40    16    1
    45    41     4    1
    46    41    42    1
    47    17    16    1
    48    16    18    1
