@<TRIPOS>MOLECULE
CSD_code = VEGKIC | q = -1 | S = 0 | Stoichiometry = C30H16CoN4O4S4(1-) | MND = 6
 59 68 0 0 0
SMALL
GASTEIGER

@<TRIPOS>ATOM
      1 CO          3.8519    8.6535    4.2619 Co.oh   1  UNL1        0.0000
      2 S           2.2449    7.1410    4.7206 S.3     1  UNL1        0.0000
      3 S           5.7998   11.8443    2.0940 S.3     1  UNL1        0.0000
      4 S           2.3213   10.3295    4.3098 S.3     1  UNL1        0.0000
      5 S           6.3553    5.4505    5.8328 S.3     1  UNL1        0.0000
      6 O           3.1584    7.2715    0.5540 O.2     1  UNL1        0.0000
      7 O           4.0642    9.9246    0.5197 O.2     1  UNL1        0.0000
      8 O           3.3988    9.3868    8.2228 O.2     1  UNL1        0.0000
      9 O           5.4094    7.5612    7.7673 O.2     1  UNL1        0.0000
     10 N           3.5541    8.6090    2.3630 N.am    1  UNL1        0.0000
     11 N           5.2806   10.0087    3.8262 N.pl3   1  UNL1        0.0000
     12 N           4.2031    8.7384    6.1670 N.am    1  UNL1        0.0000
     13 N           5.1835    7.1446    4.2828 N.pl3   1  UNL1        0.0000
     14 C           1.0673    7.2594    3.4508 C.ar    1  UNL1        0.0000
     15 C          -0.2688    7.0270    3.7882 C.ar    1  UNL1        0.0000
     16 H          -0.5088    6.8596    4.8272 H       1  UNL1        0.0000
     17 C          -1.2516    7.0141    2.8235 C.ar    1  UNL1        0.0000
     18 H          -2.2808    6.8414    3.1075 H       1  UNL1        0.0000
     19 C          -0.9228    7.2235    1.4904 C.ar    1  UNL1        0.0000
     20 H          -1.6910    7.2160    0.7302 H       1  UNL1        0.0000
     21 C           0.3945    7.4422    1.1439 C.ar    1  UNL1        0.0000
     22 H           0.6779    7.6038    0.1140 H       1  UNL1        0.0000
     23 C           1.4000    7.4736    2.1081 C.ar    1  UNL1        0.0000
     24 C           2.7654    7.7427    1.6030 C.2     1  UNL1        0.0000
     25 C           4.1615    9.6068    1.6935 C.2     1  UNL1        0.0000
     26 C           5.0237   10.3951    2.6131 C.3     1  UNL1        0.0000
     27 C           6.5477   11.9461    3.6624 C.ar    1  UNL1        0.0000
     28 C           6.1598   10.8465    4.4574 C.ar    1  UNL1        0.0000
     29 C           6.6951   10.7110    5.7379 C.ar    1  UNL1        0.0000
     30 H           6.4330    9.8630    6.3477 H       1  UNL1        0.0000
     31 C           7.5550   11.6797    6.2056 C.ar    1  UNL1        0.0000
     32 H           7.9639   11.5850    7.2000 H       1  UNL1        0.0000
     33 C           7.9030   12.7794    5.4231 C.ar    1  UNL1        0.0000
     34 H           8.5717   13.5276    5.8221 H       1  UNL1        0.0000
     35 C           7.4109   12.9182    4.1421 C.ar    1  UNL1        0.0000
     36 H           7.6839   13.7560    3.5201 H       1  UNL1        0.0000
     37 C           3.1387   11.4538    5.3562 C.ar    1  UNL1        0.0000
     38 C           3.2118   12.7948    4.9729 C.ar    1  UNL1        0.0000
     39 H           2.7846   13.0805    4.0226 H       1  UNL1        0.0000
     40 C           3.8215   13.7276    5.7843 C.ar    1  UNL1        0.0000
     41 H           3.8848   14.7582    5.4630 H       1  UNL1        0.0000
     42 C           4.3500   13.3461    7.0094 C.ar    1  UNL1        0.0000
     43 H           4.8250   14.0758    7.6493 H       1  UNL1        0.0000
     44 C           4.2632   12.0256    7.4069 C.ar    1  UNL1        0.0000
     45 H           4.6580   11.7087    8.3615 H       1  UNL1        0.0000
     46 C           3.6792   11.0670    6.5871 C.ar    1  UNL1        0.0000
     47 C           3.7035    9.6595    7.0845 C.2     1  UNL1        0.0000
     48 C           4.9626    7.7332    6.6454 C.2     1  UNL1        0.0000
     49 C           5.4042    6.8560    5.5293 C.3     1  UNL1        0.0000
     50 C           6.4701    5.2200    4.1113 C.ar    1  UNL1        0.0000
     51 C           5.7754    6.2464    3.4343 C.ar    1  UNL1        0.0000
     52 C           5.7814    6.2638    2.0397 C.ar    1  UNL1        0.0000
     53 H           5.2631    7.0353    1.4970 H       1  UNL1        0.0000
     54 C           6.4447    5.2623    1.3647 C.ar    1  UNL1        0.0000
     55 H           6.4408    5.2678    0.2856 H       1  UNL1        0.0000
     56 C           7.1127    4.2453    2.0450 C.ar    1  UNL1        0.0000
     57 H           7.6209    3.4727    1.4869 H       1  UNL1        0.0000
     58 C           7.1353    4.2166    3.4241 C.ar    1  UNL1        0.0000
     59 H           7.6536    3.4404    3.9650 H       1  UNL1        0.0000
@<TRIPOS>BOND
     1    22    21    1
     2    55    54    1
     3     7    25    2
     4     6    24    2
     5    20    19    1
     6    21    19   ar
     7    21    23   ar
     8    54    52   ar
     9    54    56   ar
    10    57    56    1
    11    19    17   ar
    12    53    52    1
    13    24    23    1
    14    24    10   am
    15    25    10   am
    16    25    26    1
    17    52    51   ar
    18    56    58   ar
    19     3    26    1
    20     3    27    1
    21    23    14   ar
    22    10     1    1
    23    26    11    1
    24    17    18    1
    25    17    15   ar
    26    58    59    1
    27    58    50   ar
    28    51    50   ar
    29    51    13    1
    30    14    15   ar
    31    14     2    1
    32    36    35    1
    33    27    35   ar
    34    27    28   ar
    35    15    16    1
    36    11     1    1
    37    11    28    1
    38    39    38    1
    39    50     5    1
    40    35    33   ar
    41     1    13    1
    42     1     4    1
    43     1     2    1
    44     1    12    1
    45    13    49    1
    46     4    37    1
    47    28    29   ar
    48    38    37   ar
    49    38    40   ar
    50    37    46   ar
    51    33    34    1
    52    33    31   ar
    53    41    40    1
    54    49     5    1
    55    49    48    1
    56    29    31   ar
    57    29    30    1
    58    40    42   ar
    59    12    48   am
    60    12    47   am
    61    31    32    1
    62    46    47    1
    63    46    44   ar
    64    48     9    2
    65    42    44   ar
    66    42    43    1
    67    47     8    2
    68    44    45    1
