@<TRIPOS>MOLECULE
CSD_code = CONNPM | q = 0 | S = 0 | Stoichiometry = C23H24CoN4PS2 | MND = 5
 55 58 0 0 0
SMALL
GASTEIGER

@<TRIPOS>ATOM
      1 CO         -2.4919   -6.4456   -7.8020 Co.oh   1  UNL1        0.0000
      2 C           0.0831   -7.7613   -8.1911 C.1     1  UNL1        0.0000
      3 C          -0.4175   -2.9256   -8.9957 C.ar    1  UNL1        0.0000
      4 C          -0.4948   -4.2250   -8.5023 C.ar    1  UNL1        0.0000
      5 C          -1.7464   -4.7399   -8.2404 C.ar    1  UNL1        0.0000
      6 C          -5.6559   -4.6679   -9.0675 C.2     1  UNL1        0.0000
      7 C          -5.9936   -5.6428  -10.0001 C.2     1  UNL1        0.0000
      8 C          -6.9934   -5.4173  -10.9289 C.2     1  UNL1        0.0000
      9 C          -7.6714   -4.2032  -10.9221 C.2     1  UNL1        0.0000
     10 C          -7.3183   -3.2634   -9.9877 C.2     1  UNL1        0.0000
     11 C          -6.3391   -3.4407   -9.0584 C.2     1  UNL1        0.0000
     12 C          -4.6487   -9.8126   -5.4767 C.3     1  UNL1        0.0000
     13 C          -2.8703   -7.3099  -10.6196 C.1     1  UNL1        0.0000
     14 C          -3.4430  -10.0279   -6.3930 C.3     1  UNL1        0.0000
     15 C          -5.8397   -7.7105   -5.9481 C.3     1  UNL1        0.0000
     16 C          -7.1966   -8.0175   -5.5041 C.3     1  UNL1        0.0000
     17 C          -2.6419   -6.4251   -5.9741 C.3     1  UNL1        0.0000
     18 C          -4.1679   -7.8672   -4.1522 C.3     1  UNL1        0.0000
     19 C          -4.0252   -6.3987   -3.9629 C.3     1  UNL1        0.0000
     20 C          -3.6639   -4.3438   -5.3316 C.3     1  UNL1        0.0000
     21 C          -4.7556   -4.1131   -6.3779 C.3     1  UNL1        0.0000
     22 C          -2.8889   -3.9743   -8.4616 C.ar    1  UNL1        0.0000
     23 C          -2.8145   -2.6874   -8.9685 C.ar    1  UNL1        0.0000
     24 C          -1.5553   -2.1710   -9.2326 C.ar    1  UNL1        0.0000
     25 H           0.5545   -2.5065   -9.2118 H       1  UNL1        0.0000
     26 H           0.4043   -4.8014   -8.3456 H       1  UNL1        0.0000
     27 H          -5.4566   -6.5810  -10.0039 H       1  UNL1        0.0000
     28 H          -7.2435   -6.1779  -11.6544 H       1  UNL1        0.0000
     29 H          -8.4548   -4.0112  -11.6404 H       1  UNL1        0.0000
     30 H          -6.0958   -2.6711   -8.3410 H       1  UNL1        0.0000
     31 H          -5.5568  -10.1664   -5.9684 H       1  UNL1        0.0000
     32 H          -4.5148  -10.3766   -4.5485 H       1  UNL1        0.0000
     33 H          -2.5114   -9.8314   -5.8681 H       1  UNL1        0.0000
     34 H          -3.4282  -11.0558   -6.7434 H       1  UNL1        0.0000
     35 H          -3.4891   -9.3690   -7.2614 H       1  UNL1        0.0000
     36 H          -5.7366   -7.9943   -7.0028 H       1  UNL1        0.0000
     37 H          -5.6839   -6.6260   -5.9194 H       1  UNL1        0.0000
     38 H          -7.2144   -8.4939   -4.5126 H       1  UNL1        0.0000
     39 H          -2.3959   -7.4098   -5.5490 H       1  UNL1        0.0000
     40 H          -3.6739   -8.5368   -3.4670 H       1  UNL1        0.0000
     41 H          -5.0050   -5.9197   -3.8358 H       1  UNL1        0.0000
     42 H          -3.4352   -6.2060   -3.0609 H       1  UNL1        0.0000
     43 H          -2.7416   -3.8722   -5.6847 H       1  UNL1        0.0000
     44 H          -3.9416   -3.8924   -4.3746 H       1  UNL1        0.0000
     45 H          -4.8245   -3.0429   -6.5826 H       1  UNL1        0.0000
     46 H          -5.7339   -4.4594   -6.0310 H       1  UNL1        0.0000
     47 H          -3.7081   -2.1138   -9.1708 H       1  UNL1        0.0000
     48 H          -1.4613   -1.1728   -9.6342 H       1  UNL1        0.0000
     49 N          -0.9811   -7.4439   -7.7864 N.2     1  UNL1        0.0000
     50 N          -2.8799   -6.9655   -9.4890 N.2     1  UNL1        0.0000
     51 N          -4.8073   -8.4026   -5.1833 N.3     1  UNL1        0.0000
     52 N          -3.3765   -5.7506   -5.1194 N.3     1  UNL1        0.0000
     53 P          -4.2837   -5.0194   -7.9356 P.3     1  UNL1        0.0000
     54 S           1.5150   -8.2822   -8.5845 S.2     1  UNL1        0.0000
     55 S          -3.0008   -7.7599  -12.1203 S.2     1  UNL1        0.0000
@<TRIPOS>BOND
     1    55    13    2
     2    28     8    1
     3    29     9    1
     4     8     9    2
     5     8     7    1
     6     9    10    1
     7    13    50    2
     8    27     7    1
     9     7     6    2
    10    10    11    2
    11    48    24    1
    12    50     1    1
    13    24     3   ar
    14    24    23   ar
    15    25     3    1
    16    47    23    1
    17     6    11    1
    18     6    53    1
    19    11    30    1
    20     3     4   ar
    21    23    22   ar
    22    54     2    2
    23     4    26    1
    24     4     5   ar
    25    22     5   ar
    26    22    53    1
    27     5     1    1
    28     2    49    2
    29    53     1    1
    30    53    21    1
    31     1    49    1
    32     1    17    1
    33    35    14    1
    34    36    15    1
    35    34    14    1
    36    45    21    1
    37    14    33    1
    38    14    12    1
    39    21    46    1
    40    21    20    1
    41    17    39    1
    42    17    52    1
    43    31    12    1
    44    15    37    1
    45    15    16    1
    46    15    51    1
    47    43    20    1
    48    16    38    1
    49    12    51    1
    50    12    32    1
    51    20    52    1
    52    20    44    1
    53    51    18    1
    54    52    19    1
    55    18    19    1
    56    18    40    1
    57    19    41    1
    58    19    42    1
