@<TRIPOS>MOLECULE
CSD_code = AGAVIQ | q = 0 | S = 0 | Stoichiometry = C30H41CoO2P2S | MND = 5
 77 81 0 0 0
SMALL
GASTEIGER

@<TRIPOS>ATOM
      1 CO          3.3307    7.8723    4.4230 Co.oh   1  UNL1        0.0000
      2 S           4.4336    6.2867    3.3044 S.3     1  UNL1        0.0000
      3 P           4.8767    7.7609    5.9969 P.3     1  UNL1        0.0000
      4 O           4.7767    9.1865    6.7714 O.3     1  UNL1        0.0000
      5 O           1.7085   10.1623    3.2742 O.3     1  UNL1        0.0000
      6 C           3.2681    9.6809    4.9984 C.ar    1  UNL1        0.0000
      7 C           4.0133   10.1191    6.0877 C.ar    1  UNL1        0.0000
      8 C           6.6307    7.8164    5.3534 C.3     1  UNL1        0.0000
      9 H           6.7701    6.9041    4.7657 H       1  UNL1        0.0000
     10 P           1.9468    8.6081    2.8430 P.3     1  UNL1        0.0000
     11 C           6.7242    9.0225    4.4225 C.3     1  UNL1        0.0000
     12 H           6.6424    9.9500    4.9881 H       1  UNL1        0.0000
     13 H           5.9187    8.9989    3.6881 H       1  UNL1        0.0000
     14 H           7.6738    9.0247    3.8901 H       1  UNL1        0.0000
     15 C           7.6817    7.9114    6.4528 C.3     1  UNL1        0.0000
     16 H           8.6455    8.1610    6.0108 H       1  UNL1        0.0000
     17 H           7.7952    6.9731    6.9898 H       1  UNL1        0.0000
     18 H           7.4192    8.6981    7.1590 H       1  UNL1        0.0000
     19 C           4.9847    6.6316    7.4604 C.3     1  UNL1        0.0000
     20 H           5.8380    6.9910    8.0470 H       1  UNL1        0.0000
     21 C           5.2272    5.2090    6.9744 C.3     1  UNL1        0.0000
     22 H           5.2946    4.5243    7.8184 H       1  UNL1        0.0000
     23 H           6.1465    5.1391    6.3967 H       1  UNL1        0.0000
     24 H           4.4049    4.8911    6.3367 H       1  UNL1        0.0000
     25 C           3.7376    6.7203    8.3312 C.3     1  UNL1        0.0000
     26 H           2.8827    6.2732    7.8325 H       1  UNL1        0.0000
     27 H           3.5010    7.7578    8.5577 H       1  UNL1        0.0000
     28 H           3.9037    6.1916    9.2688 H       1  UNL1        0.0000
     29 C           3.9900   11.4431    6.4942 C.ar    1  UNL1        0.0000
     30 H           4.5813   11.7539    7.3413 H       1  UNL1        0.0000
     31 C           3.1959   12.3448    5.8026 C.ar    1  UNL1        0.0000
     32 H           3.1682   13.3774    6.1140 H       1  UNL1        0.0000
     33 C           2.4351   11.9367    4.7192 C.ar    1  UNL1        0.0000
     34 H           1.8106   12.6320    4.1802 H       1  UNL1        0.0000
     35 C           2.4753   10.6057    4.3331 C.ar    1  UNL1        0.0000
     36 C           0.1651    8.2074    2.4915 C.3     1  UNL1        0.0000
     37 H          -0.1590    9.0137    1.8228 H       1  UNL1        0.0000
     38 C           0.0170    6.8596    1.8029 C.3     1  UNL1        0.0000
     39 H           0.3255    6.0623    2.4743 H       1  UNL1        0.0000
     40 H           0.6233    6.7990    0.9012 H       1  UNL1        0.0000
     41 H          -1.0236    6.6907    1.5294 H       1  UNL1        0.0000
     42 C          -0.6876    8.2757    3.7528 C.3     1  UNL1        0.0000
     43 H          -1.7431    8.2585    3.4843 H       1  UNL1        0.0000
     44 H          -0.4883    9.1924    4.3038 H       1  UNL1        0.0000
     45 H          -0.4875    7.4314    4.4059 H       1  UNL1        0.0000
     46 C           2.6450    8.8695    1.1268 C.3     1  UNL1        0.0000
     47 H           2.7413    7.8826    0.6641 H       1  UNL1        0.0000
     48 C           4.0376    9.4683    1.3023 C.3     1  UNL1        0.0000
     49 H           4.5316    9.5859    0.3390 H       1  UNL1        0.0000
     50 H           4.6519    8.8151    1.9221 H       1  UNL1        0.0000
     51 H           3.9771   10.4460    1.7808 H       1  UNL1        0.0000
     52 C           1.7795    9.7687    0.2512 C.3     1  UNL1        0.0000
     53 H           1.4942   10.6688    0.7930 H       1  UNL1        0.0000
     54 H           0.8827    9.2577   -0.0899 H       1  UNL1        0.0000
     55 H           2.3465   10.0676   -0.6295 H       1  UNL1        0.0000
     56 C           3.7544    5.6566    1.8134 C.ar    1  UNL1        0.0000
     57 C           2.6860    4.7658    1.8342 C.ar    1  UNL1        0.0000
     58 H           2.2379    4.4936    2.7791 H       1  UNL1        0.0000
     59 C           2.2080    4.2239    0.6570 C.ar    1  UNL1        0.0000
     60 H           1.3739    3.5370    0.6854 H       1  UNL1        0.0000
     61 C           2.7944    4.5531   -0.5541 C.ar    1  UNL1        0.0000
     62 H           2.4170    4.1299   -1.4734 H       1  UNL1        0.0000
     63 C           3.8777    5.4173   -0.5773 C.ar    1  UNL1        0.0000
     64 H           4.3512    5.6664   -1.5165 H       1  UNL1        0.0000
     65 C           4.3612    5.9615    0.5964 C.ar    1  UNL1        0.0000
     66 H           5.2132    6.6256    0.5823 H       1  UNL1        0.0000
     67 C           1.9025    7.5306    5.6580 C.ar    1  UNL1        0.0000
     68 C           1.2275    8.3214    6.5769 C.ar    1  UNL1        0.0000
     69 H           1.4624    9.3686    6.6926 H       1  UNL1        0.0000
     70 C           0.2264    7.7779    7.3701 C.ar    1  UNL1        0.0000
     71 H          -0.2871    8.4115    8.0791 H       1  UNL1        0.0000
     72 C          -0.1155    6.4432    7.2605 C.ar    1  UNL1        0.0000
     73 H          -0.8953    6.0255    7.8801 H       1  UNL1        0.0000
     74 C           0.5529    5.6449    6.3478 C.ar    1  UNL1        0.0000
     75 H           0.2995    4.5983    6.2505 H       1  UNL1        0.0000
     76 C           1.5523    6.1854    5.5554 C.ar    1  UNL1        0.0000
     77 H           2.0628    5.5370    4.8533 H       1  UNL1        0.0000
@<TRIPOS>BOND
     1    64    63    1
     2    62    61    1
     3    55    52    1
     4    63    61   ar
     5    63    65   ar
     6    61    59   ar
     7    54    52    1
     8    52    53    1
     9    52    46    1
    10    49    48    1
    11    66    65    1
    12    65    56   ar
    13    59    60    1
    14    59    57   ar
    15    47    46    1
    16    40    38    1
    17    46    48    1
    18    46    10    1
    19    48    51    1
    20    48    50    1
    21    41    38    1
    22    38    39    1
    23    38    36    1
    24    56    57   ar
    25    56     2    1
    26    37    36    1
    27    57    58    1
    28    36    10    1
    29    36    42    1
    30    10     5    1
    31    10     1    1
    32     5    35    1
    33     2     1    1
    34    43    42    1
    35    13    11    1
    36    42    44    1
    37    42    45    1
    38    14    11    1
    39    34    33    1
    40    35    33   ar
    41    35     6   ar
    42    11    12    1
    43    11     8    1
    44     1     6    1
    45     1    67    1
    46     1     3    1
    47    33    31   ar
    48     9     8    1
    49    77    76    1
    50     6     7   ar
    51     8     3    1
    52     8    15    1
    53    76    67   ar
    54    76    74   ar
    55    67    68   ar
    56    31    32    1
    57    31    29   ar
    58     3     4    1
    59     3    19    1
    60    16    15    1
    61     7    29   ar
    62     7     4    1
    63    75    74    1
    64    24    21    1
    65    74    72   ar
    66    23    21    1
    67    15    17    1
    68    15    18    1
    69    29    30    1
    70    68    69    1
    71    68    70   ar
    72    21    19    1
    73    21    22    1
    74    72    70   ar
    75    72    73    1
    76    70    71    1
    77    19    20    1
    78    19    25    1
    79    26    25    1
    80    25    27    1
    81    25    28    1
