@<TRIPOS>MOLECULE
CSD_code = DIDSOB | q = 0 | S = 0 | Stoichiometry = C22H36CoNO4P2 | MND = 5
 66 68 0 0 0
SMALL
GASTEIGER

@<TRIPOS>ATOM
      1 CO          5.0151    4.9826    6.0241 Co.oh   1  UNL1        0.0000
      2 P           2.9482    5.7894    5.5713 P.3     1  UNL1        0.0000
      3 P           6.9777    5.5726    7.0138 P.3     1  UNL1        0.0000
      4 O           2.2079    5.7257    7.0206 O.3     1  UNL1        0.0000
      5 O           6.6489    5.2947    8.5844 O.3     1  UNL1        0.0000
      6 O           4.5183    2.5116    7.5597 O.3     1  UNL1        0.0000
      7 O           5.9501    4.7423    3.2909 O.3     1  UNL1        0.0000
      8 N           3.0629    5.8382   11.7591 N.pl3   1  UNL1        0.0000
      9 C           4.4104    5.3260    7.8076 C.ar    1  UNL1        0.0000
     10 C           3.0766    5.5912    8.0945 C.ar    1  UNL1        0.0000
     11 C           2.6183    5.7908    9.3817 C.ar    1  UNL1        0.0000
     12 H           1.5717    6.0005    9.5193 H       1  UNL1        0.0000
     13 C           3.5115    5.7313   10.4628 C.ar    1  UNL1        0.0000
     14 C           4.8777    5.5696   10.1813 C.ar    1  UNL1        0.0000
     15 H           5.6263    5.6056   10.9539 H       1  UNL1        0.0000
     16 C           5.2940    5.3770    8.8803 C.ar    1  UNL1        0.0000
     17 C           1.7759    4.6954    4.6319 C.3     1  UNL1        0.0000
     18 H           0.7666    5.0295    4.9012 H       1  UNL1        0.0000
     19 C           1.9970    4.8113    3.1300 C.3     1  UNL1        0.0000
     20 H           1.7502    5.8048    2.7626 H       1  UNL1        0.0000
     21 H           1.3737    4.0903    2.6031 H       1  UNL1        0.0000
     22 H           3.0376    4.6022    2.8883 H       1  UNL1        0.0000
     23 C           1.9476    3.2544    5.0959 C.3     1  UNL1        0.0000
     24 H           1.8429    3.1849    6.1776 H       1  UNL1        0.0000
     25 H           2.9331    2.8829    4.8178 H       1  UNL1        0.0000
     26 H           1.1946    2.6152    4.6369 H       1  UNL1        0.0000
     27 C           2.4266    7.4907    4.9861 C.3     1  UNL1        0.0000
     28 H           2.6781    7.5434    3.9217 H       1  UNL1        0.0000
     29 C           3.2816    8.5051    5.7363 C.3     1  UNL1        0.0000
     30 H           4.3342    8.3293    5.5185 H       1  UNL1        0.0000
     31 H           3.1261    8.4123    6.8113 H       1  UNL1        0.0000
     32 H           3.0330    9.5226    5.4380 H       1  UNL1        0.0000
     33 C           0.9412    7.7609    5.1913 C.3     1  UNL1        0.0000
     34 H           0.3285    7.1789    4.5076 H       1  UNL1        0.0000
     35 H           0.7311    8.8153    5.0158 H       1  UNL1        0.0000
     36 H           0.6528    7.5204    6.2126 H       1  UNL1        0.0000
     37 C           8.2976    4.2899    6.7175 C.3     1  UNL1        0.0000
     38 H           7.6988    3.4063    6.4502 H       1  UNL1        0.0000
     39 C           9.1326    4.6782    5.5030 C.3     1  UNL1        0.0000
     40 H           8.4851    4.9647    4.6756 H       1  UNL1        0.0000
     41 H           9.7465    3.8382    5.1824 H       1  UNL1        0.0000
     42 H           9.7914    5.5136    5.7295 H       1  UNL1        0.0000
     43 C           9.1499    3.9170    7.9251 C.3     1  UNL1        0.0000
     44 H           8.5244    3.7768    8.8033 H       1  UNL1        0.0000
     45 H           9.8948    4.6748    8.1460 H       1  UNL1        0.0000
     46 H           9.6702    2.9816    7.7232 H       1  UNL1        0.0000
     47 C           7.8384    7.2330    7.1398 C.3     1  UNL1        0.0000
     48 H           8.1649    7.4855    6.1253 H       1  UNL1        0.0000
     49 C           9.0173    7.2684    8.1036 C.3     1  UNL1        0.0000
     50 H           9.8956    6.7847    7.6853 H       1  UNL1        0.0000
     51 H           8.7526    6.7790    9.0387 H       1  UNL1        0.0000
     52 H           9.2791    8.3035    8.3220 H       1  UNL1        0.0000
     53 C           6.7645    8.2237    7.5811 C.3     1  UNL1        0.0000
     54 H           5.8729    8.1161    6.9653 H       1  UNL1        0.0000
     55 H           7.1224    9.2489    7.5012 H       1  UNL1        0.0000
     56 H           6.4829    8.0353    8.6165 H       1  UNL1        0.0000
     57 C           4.0123    5.9775   12.8354 C.3     1  UNL1        0.0000
     58 H           3.4799    6.0051   13.7836 H       1  UNL1        0.0000
     59 H           4.6106    6.8931   12.7484 H       1  UNL1        0.0000
     60 H           4.6867    5.1194   12.8558 H       1  UNL1        0.0000
     61 C           1.6990    6.2321   12.0132 C.3     1  UNL1        0.0000
     62 H           1.4728    7.2290   11.6150 H       1  UNL1        0.0000
     63 H           1.5215    6.2435   13.0862 H       1  UNL1        0.0000
     64 H           1.0092    5.5128   11.5677 H       1  UNL1        0.0000
     65 C           4.7437    3.3737    6.8307 C.3     1  UNL1        0.0000
     66 C           5.5805    4.8022    4.3814 C.3     1  UNL1        0.0000
@<TRIPOS>BOND
     1    21    19    1
     2    20    19    1
     3    22    19    1
     4    19    17    1
     5     7    66    1
     6    28    27    1
     7    66     1    1
     8    34    33    1
     9    17    18    1
    10    17    23    1
    11    17     2    1
    12    26    23    1
    13    40    39    1
    14    25    23    1
    15    27    33    1
    16    27     2    1
    17    27    29    1
    18    35    33    1
    19    23    24    1
    20    41    39    1
    21    33    36    1
    22    32    29    1
    23    39    42    1
    24    39    37    1
    25    30    29    1
    26     2     1    1
    27     2     4    1
    28    29    31    1
    29     1    65    1
    30     1     3    1
    31     1     9    1
    32    48    47    1
    33    38    37    1
    34    37     3    1
    35    37    43    1
    36    65     6    1
    37    54    53    1
    38     3    47    1
    39     3     5    1
    40     4    10    1
    41    47    53    1
    42    47    49    1
    43    55    53    1
    44    53    56    1
    45    50    49    1
    46    46    43    1
    47     9    10   ar
    48     9    16   ar
    49    43    45    1
    50    43    44    1
    51    10    11   ar
    52    49    52    1
    53    49    51    1
    54     5    16    1
    55    16    14   ar
    56    11    12    1
    57    11    13   ar
    58    14    13   ar
    59    14    15    1
    60    13     8    1
    61    64    61    1
    62    62    61    1
    63     8    61    1
    64     8    57    1
    65    61    63    1
    66    59    57    1
    67    57    60    1
    68    57    58    1
