@<TRIPOS>MOLECULE
CSD_code = DIDTAO | q = 0 | S = 0 | Stoichiometry = C22H33CoO6P2 | MND = 5
 64 66 0 0 0
SMALL
GASTEIGER

@<TRIPOS>ATOM
      1 CO          2.4078    1.5110    5.0352 Co.oh   1  UNL1        0.0000
      2 P           1.2951    1.2904    3.0831 P.3     1  UNL1        0.0000
      3 P           4.3325    0.9072    6.0271 P.3     1  UNL1        0.0000
      4 O           0.8386   -0.2728    3.0864 O.3     1  UNL1        0.0000
      5 O           3.9519   -0.5589    6.6304 O.3     1  UNL1        0.0000
      6 O           0.9414   -5.2140    4.3148 O.2     1  UNL1        0.0000
      7 O           2.4010   -5.2602    6.0152 O.3     1  UNL1        0.0000
      8 O           3.0178    4.3335    4.7720 O.3     1  UNL1        0.0000
      9 O           0.5173    0.6408    7.1167 O.3     1  UNL1        0.0000
     10 C           2.2482   -0.3963    4.9939 C.ar    1  UNL1        0.0000
     11 C           1.4200   -1.0415    4.0761 C.ar    1  UNL1        0.0000
     12 C           1.2378   -2.4104    4.1008 C.ar    1  UNL1        0.0000
     13 H           0.5848   -2.8989    3.3950 H       1  UNL1        0.0000
     14 C           1.9185   -3.1720    5.0511 C.ar    1  UNL1        0.0000
     15 C           2.8273   -2.5675    5.9220 C.ar    1  UNL1        0.0000
     16 H           3.4036   -3.1603    6.6131 H       1  UNL1        0.0000
     17 C           2.9865   -1.1984    5.8660 C.ar    1  UNL1        0.0000
     18 C          -0.3795    2.1157    2.9895 C.3     1  UNL1        0.0000
     19 H          -0.6929    2.0841    1.9384 H       1  UNL1        0.0000
     20 C          -1.3982    1.3571    3.8325 C.3     1  UNL1        0.0000
     21 H          -1.5343    0.3430    3.4644 H       1  UNL1        0.0000
     22 H          -2.3593    1.8675    3.8011 H       1  UNL1        0.0000
     23 H          -1.0717    1.3083    4.8701 H       1  UNL1        0.0000
     24 C          -0.2791    3.5632    3.4566 C.3     1  UNL1        0.0000
     25 H           0.4938    4.1064    2.9178 H       1  UNL1        0.0000
     26 H          -0.0356    3.5913    4.5176 H       1  UNL1        0.0000
     27 H          -1.2285    4.0753    3.3079 H       1  UNL1        0.0000
     28 C           1.8423    1.4009    1.3045 C.3     1  UNL1        0.0000
     29 H           1.0558    0.8972    0.7268 H       1  UNL1        0.0000
     30 C           3.1507    0.6355    1.1519 C.3     1  UNL1        0.0000
     31 H           3.0545   -0.3765    1.5441 H       1  UNL1        0.0000
     32 H           3.9444    1.1502    1.6922 H       1  UNL1        0.0000
     33 H           3.4371    0.5698    0.1036 H       1  UNL1        0.0000
     34 C           2.0044    2.8425    0.8443 C.3     1  UNL1        0.0000
     35 H           1.0497    3.3611    0.8074 H       1  UNL1        0.0000
     36 H           2.4404    2.8671   -0.1533 H       1  UNL1        0.0000
     37 H           2.6695    3.3798    1.5192 H       1  UNL1        0.0000
     38 C           4.8634    1.7075    7.6086 C.3     1  UNL1        0.0000
     39 H           5.5329    0.9949    8.1048 H       1  UNL1        0.0000
     40 C           5.5836    3.0199    7.3293 C.3     1  UNL1        0.0000
     41 H           6.4872    2.8652    6.7437 H       1  UNL1        0.0000
     42 H           5.8615    3.5024    8.2650 H       1  UNL1        0.0000
     43 H           4.9313    3.6959    6.7797 H       1  UNL1        0.0000
     44 C           3.6423    1.9298    8.4928 C.3     1  UNL1        0.0000
     45 H           3.1171    0.9915    8.6628 H       1  UNL1        0.0000
     46 H           2.9558    2.6327    8.0216 H       1  UNL1        0.0000
     47 H           3.9426    2.3351    9.4577 H       1  UNL1        0.0000
     48 C           5.9494    0.5273    5.1629 C.3     1  UNL1        0.0000
     49 H           6.3146    1.4764    4.7562 H       1  UNL1        0.0000
     50 C           5.6253   -0.4156    4.0080 C.3     1  UNL1        0.0000
     51 H           4.7858   -0.0318    3.4290 H       1  UNL1        0.0000
     52 H           5.3528   -1.4000    4.3867 H       1  UNL1        0.0000
     53 H           6.4823   -0.5276    3.3461 H       1  UNL1        0.0000
     54 C           6.9878   -0.0928    6.0899 C.3     1  UNL1        0.0000
     55 H           7.3924    0.6323    6.7915 H       1  UNL1        0.0000
     56 H           7.8143   -0.4874    5.5004 H       1  UNL1        0.0000
     57 H           6.5463   -0.9163    6.6489 H       1  UNL1        0.0000
     58 C           1.6853   -4.6296    5.0660 C.2     1  UNL1        0.0000
     59 C           2.2202   -6.6649    6.0867 C.3     1  UNL1        0.0000
     60 H           2.8594   -7.0137    6.8939 H       1  UNL1        0.0000
     61 H           2.5037   -7.1336    5.1418 H       1  UNL1        0.0000
     62 H           1.1748   -6.9035    6.2942 H       1  UNL1        0.0000
     63 C           2.7461    3.2234    4.9051 C.3     1  UNL1        0.0000
     64 C           1.1674    1.1732    6.3349 C.3     1  UNL1        0.0000
@<TRIPOS>BOND
     1    36    34    1
     2    33    30    1
     3    29    28    1
     4    35    34    1
     5    34    28    1
     6    34    37    1
     7    30    28    1
     8    30    31    1
     9    30    32    1
    10    28     2    1
    11    19    18    1
    12    25    24    1
    13    18     2    1
    14    18    24    1
    15    18    20    1
    16     2     4    1
    17     2     1    1
    18     4    11    1
    19    27    24    1
    20    53    50    1
    21    13    12    1
    22    51    50    1
    23    24    26    1
    24    21    20    1
    25    22    20    1
    26    20    23    1
    27    50    52    1
    28    50    48    1
    29    11    12   ar
    30    11    10   ar
    31    12    14   ar
    32     6    58    2
    33    49    48    1
    34     8    63    1
    35    63     1    1
    36    10     1    1
    37    10    17   ar
    38     1     3    1
    39     1    64    1
    40    14    58    1
    41    14    15   ar
    42    58     7    1
    43    61    59    1
    44    48     3    1
    45    48    54    1
    46    56    54    1
    47    17    15   ar
    48    17     5    1
    49    15    16    1
    50     7    59    1
    51     3     5    1
    52     3    38    1
    53    59    62    1
    54    59    60    1
    55    54    57    1
    56    54    55    1
    57    64     9    1
    58    41    40    1
    59    43    40    1
    60    40    38    1
    61    40    42    1
    62    38    39    1
    63    38    44    1
    64    46    44    1
    65    44    45    1
    66    44    47    1
