@<TRIPOS>MOLECULE
CSD_code = LECFOR | q = 0 | S = 0 | Stoichiometry = C24H39CoO4P2 | MND = 5
 70 72 0 0 0
SMALL
GASTEIGER

@<TRIPOS>ATOM
      1 CO          4.0031   10.1523    1.7998 Co.oh   1  UNL1        0.0000
      2 P           4.2644    8.1814    0.6830 P.3     1  UNL1        0.0000
      3 P           2.7185   11.9198    2.4358 P.3     1  UNL1        0.0000
      4 O           1.5377   11.2492    3.3159 O.3     1  UNL1        0.0000
      5 O           2.9745    7.2982    1.0961 O.3     1  UNL1        0.0000
      6 O           6.1673   10.1693    3.7376 O.2     1  UNL1        0.0000
      7 C           5.6866    5.6942    0.5911 C.3     1  UNL1        0.0000
      8 H           4.6948    5.2521    0.5302 H       1  UNL1        0.0000
      9 H           6.3279    5.0111    1.1482 H       1  UNL1        0.0000
     10 H           6.1025    5.7941   -0.4076 H       1  UNL1        0.0000
     11 O           5.9312   11.6262    0.2203 O.3     1  UNL1        0.0000
     12 C           5.1087    9.9372    3.3423 C.2     1  UNL1        0.0000
     13 C           2.3641    9.2513    2.3202 C.ar    1  UNL1        0.0000
     14 C           1.3798    9.8900    3.0727 C.ar    1  UNL1        0.0000
     15 C           3.4151   13.1020    3.7360 C.3     1  UNL1        0.0000
     16 C           5.2847    6.7550    2.7857 C.3     1  UNL1        0.0000
     17 H           5.0826    7.6802    3.3247 H       1  UNL1        0.0000
     18 H           6.1143    6.2474    3.2756 H       1  UNL1        0.0000
     19 H           4.4028    6.1214    2.8580 H       1  UNL1        0.0000
     20 C           0.0584    7.9080    3.2083 C.ar    1  UNL1        0.0000
     21 H          -0.8182    7.3879    3.5621 H       1  UNL1        0.0000
     22 C           0.2457    9.2423    3.5311 C.ar    1  UNL1        0.0000
     23 H          -0.4811    9.7834    4.1174 H       1  UNL1        0.0000
     24 C           3.5680   12.2839    5.0200 C.3     1  UNL1        0.0000
     25 H           2.5958   12.0908    5.4682 H       1  UNL1        0.0000
     26 H           4.1804   12.8277    5.7375 H       1  UNL1        0.0000
     27 H           4.0428   11.3251    4.8186 H       1  UNL1        0.0000
     28 C           5.2143   11.0433    0.9102 C.3     1  UNL1        0.0000
     29 C           1.6911   12.8663    1.1487 C.3     1  UNL1        0.0000
     30 C           2.0967    7.9315    1.9661 C.ar    1  UNL1        0.0000
     31 C           0.9728    7.2497    2.4042 C.ar    1  UNL1        0.0000
     32 H           0.8204    6.2231    2.1081 H       1  UNL1        0.0000
     33 C           5.6319    7.0335    1.3208 C.3     1  UNL1        0.0000
     34 C           0.4710   13.5878    1.7177 C.3     1  UNL1        0.0000
     35 H           0.0042   12.9926    2.5000 H       1  UNL1        0.0000
     36 H          -0.2615   13.7297    0.9235 H       1  UNL1        0.0000
     37 H           0.7166   14.5662    2.1159 H       1  UNL1        0.0000
     38 C           4.7850   13.5761    3.2557 C.3     1  UNL1        0.0000
     39 H           5.4643   12.7347    3.1404 H       1  UNL1        0.0000
     40 H           5.2171   14.2654    3.9801 H       1  UNL1        0.0000
     41 H           4.7134   14.0875    2.2983 H       1  UNL1        0.0000
     42 C           4.1468    8.0557   -1.2063 C.3     1  UNL1        0.0000
     43 C           2.5259   14.3033    4.0430 C.3     1  UNL1        0.0000
     44 H           2.5119   15.0132    3.2206 H       1  UNL1        0.0000
     45 H           2.9207   14.8194    4.9183 H       1  UNL1        0.0000
     46 H           1.5117   13.9851    4.2690 H       1  UNL1        0.0000
     47 C           2.5932   13.8126    0.3649 C.3     1  UNL1        0.0000
     48 H           2.9023   14.6617    0.9702 H       1  UNL1        0.0000
     49 H           2.0646   14.1960   -0.5072 H       1  UNL1        0.0000
     50 H           3.4843   13.2890    0.0213 H       1  UNL1        0.0000
     51 C           1.1916   11.7572    0.2204 C.3     1  UNL1        0.0000
     52 H           2.0295   11.1689   -0.1464 H       1  UNL1        0.0000
     53 H           0.6669   12.1815   -0.6349 H       1  UNL1        0.0000
     54 H           0.5077   11.0919    0.7467 H       1  UNL1        0.0000
     55 C           6.9791    7.7448    1.2357 C.3     1  UNL1        0.0000
     56 H           7.2738    7.9219    0.2050 H       1  UNL1        0.0000
     57 H           7.7493    7.1366    1.7086 H       1  UNL1        0.0000
     58 H           6.9421    8.7036    1.7466 H       1  UNL1        0.0000
     59 C           3.1365    9.1449   -1.5725 C.3     1  UNL1        0.0000
     60 H           2.1943    8.9809   -1.0494 H       1  UNL1        0.0000
     61 H           2.9373    9.1400   -2.6435 H       1  UNL1        0.0000
     62 H           3.5298   10.1249   -1.3055 H       1  UNL1        0.0000
     63 C           3.6035    6.7169   -1.7017 C.3     1  UNL1        0.0000
     64 H           4.3528    5.9335   -1.6786 H       1  UNL1        0.0000
     65 H           3.2713    6.8271   -2.7337 H       1  UNL1        0.0000
     66 H           2.7500    6.4046   -1.1046 H       1  UNL1        0.0000
     67 C           5.4847    8.3896   -1.8571 C.3     1  UNL1        0.0000
     68 H           5.9082    9.2921   -1.4193 H       1  UNL1        0.0000
     69 H           5.3414    8.5646   -2.9231 H       1  UNL1        0.0000
     70 H           6.1999    7.5785   -1.7470 H       1  UNL1        0.0000
@<TRIPOS>BOND
     1    69    67    1
     2    65    63    1
     3    61    59    1
     4    67    70    1
     5    67    68    1
     6    67    42    1
     7    63    64    1
     8    63    42    1
     9    63    66    1
    10    59    62    1
    11    59    42    1
    12    59    60    1
    13    42     2    1
    14    53    51    1
    15    49    47    1
    16    10     7    1
    17    52    51    1
    18    50    47    1
    19    56    55    1
    20    11    28    1
    21    51    54    1
    22    51    29    1
    23    47    48    1
    24    47    29    1
    25     8     7    1
    26     7     9    1
    27     7    33    1
    28     2     5    1
    29     2    33    1
    30     2     1    1
    31    28     1    1
    32    36    34    1
    33     5    30    1
    34    29    34    1
    35    29     3    1
    36    55    33    1
    37    55    57    1
    38    55    58    1
    39    33    16    1
    40    34    37    1
    41    34    35    1
    42     1    13    1
    43     1     3    1
    44     1    12    1
    45    30    13   ar
    46    30    31   ar
    47    32    31    1
    48    41    38    1
    49    13    14   ar
    50    31    20   ar
    51     3     4    1
    52     3    15    1
    53    16    19    1
    54    16    18    1
    55    16    17    1
    56    14     4    1
    57    14    22   ar
    58    39    38    1
    59    20    22   ar
    60    20    21    1
    61    44    43    1
    62    38    15    1
    63    38    40    1
    64    12     6    2
    65    22    23    1
    66    15    43    1
    67    15    24    1
    68    43    46    1
    69    43    45    1
    70    27    24    1
    71    24    25    1
    72    24    26    1
