@<TRIPOS>MOLECULE
CSD_code = LECFIL | q = 0 | S = 0 | Stoichiometry = C23H39CoO3P2 | MND = 4
 68 70 0 0 0
SMALL
GASTEIGER

@<TRIPOS>ATOM
      1 CO          2.7081    2.4426    3.0571 Co.oh   1  UNL1        0.0000
      2 P           3.8111    4.3109    3.3110 P.3     1  UNL1        0.0000
      3 P           1.9530    0.4178    3.3756 P.3     1  UNL1        0.0000
      4 O           4.7641    4.1205    4.6098 O.3     1  UNL1        0.0000
      5 C           3.6587    2.0151    4.6632 C.ar    1  UNL1        0.0000
      6 C           1.8412    2.8323    1.6009 C.3     1  UNL1        0.0000
      7 O           2.5883   -0.1062    4.7732 O.3     1  UNL1        0.0000
      8 C           5.1276    4.7085    2.0278 C.3     1  UNL1        0.0000
      9 C           4.1653    0.4710    6.4857 C.ar    1  UNL1        0.0000
     10 H           3.9965   -0.4855    6.9569 H       1  UNL1        0.0000
     11 C           4.5649    2.9000    5.2450 C.ar    1  UNL1        0.0000
     12 C           5.2620    2.6107    6.4057 C.ar    1  UNL1        0.0000
     13 H           5.9523    3.3327    6.8152 H       1  UNL1        0.0000
     14 C           2.8159    5.8110    3.8569 C.3     1  UNL1        0.0000
     15 C           3.4880    0.7995    5.3236 C.ar    1  UNL1        0.0000
     16 C           0.1277    0.2350    3.7902 C.3     1  UNL1        0.0000
     17 C           5.0547    1.3876    7.0222 C.ar    1  UNL1        0.0000
     18 H           5.5905    1.1467    7.9277 H       1  UNL1        0.0000
     19 C           2.5961   -0.9093    2.2077 C.3     1  UNL1        0.0000
     20 O           1.2622    3.0925    0.6342 O.3     1  UNL1        0.0000
     21 C           2.2250   -2.3234    2.6368 C.3     1  UNL1        0.0000
     22 H           2.3905   -2.4532    3.7044 H       1  UNL1        0.0000
     23 H           2.8436   -3.0452    2.1037 H       1  UNL1        0.0000
     24 H           1.1846   -2.5428    2.4090 H       1  UNL1        0.0000
     25 C          -0.1289    1.4969    4.6214 C.3     1  UNL1        0.0000
     26 H           0.4815    1.4881    5.5244 H       1  UNL1        0.0000
     27 H          -1.1756    1.5636    4.9157 H       1  UNL1        0.0000
     28 H           0.1259    2.3863    4.0379 H       1  UNL1        0.0000
     29 C           2.1386   -0.6257    0.7813 C.3     1  UNL1        0.0000
     30 H           1.0705   -0.7815    0.6617 H       1  UNL1        0.0000
     31 H           2.6567   -1.2871    0.0876 H       1  UNL1        0.0000
     32 H           2.3688    0.4030    0.5100 H       1  UNL1        0.0000
     33 C           4.1139   -0.7167    2.2864 C.3     1  UNL1        0.0000
     34 H           4.3646    0.3353    2.1226 H       1  UNL1        0.0000
     35 H           4.6177   -1.3148    1.5283 H       1  UNL1        0.0000
     36 H           4.4933   -1.0104    3.2635 H       1  UNL1        0.0000
     37 C           5.6581    3.3122    1.6846 C.3     1  UNL1        0.0000
     38 H           6.0943    2.8435    2.5668 H       1  UNL1        0.0000
     39 H           6.4232    3.3653    0.9110 H       1  UNL1        0.0000
     40 H           4.8409    2.6814    1.3232 H       1  UNL1        0.0000
     41 C           3.6839    6.9989    4.2536 C.3     1  UNL1        0.0000
     42 H           4.5120    6.6732    4.8799 H       1  UNL1        0.0000
     43 H           3.0901    7.7183    4.8170 H       1  UNL1        0.0000
     44 H           4.0795    7.5062    3.3768 H       1  UNL1        0.0000
     45 C          -0.7253    0.2752    2.5282 C.3     1  UNL1        0.0000
     46 H          -0.3967    1.0765    1.8691 H       1  UNL1        0.0000
     47 H          -1.7680    0.4534    2.7894 H       1  UNL1        0.0000
     48 H          -0.6734   -0.6674    1.9881 H       1  UNL1        0.0000
     49 C          -0.1942   -0.9972    4.6297 C.3     1  UNL1        0.0000
     50 H          -0.1466   -1.9084    4.0410 H       1  UNL1        0.0000
     51 H          -1.2032   -0.9082    5.0317 H       1  UNL1        0.0000
     52 H           0.4981   -1.0854    5.4635 H       1  UNL1        0.0000
     53 C           2.0578    5.2814    5.0783 C.3     1  UNL1        0.0000
     54 H           1.5540    4.3437    4.8258 H       1  UNL1        0.0000
     55 H           1.3080    5.9996    5.4073 H       1  UNL1        0.0000
     56 H           2.7382    5.0916    5.9064 H       1  UNL1        0.0000
     57 C           6.2706    5.5660    2.5619 C.3     1  UNL1        0.0000
     58 H           5.9664    6.5988    2.7029 H       1  UNL1        0.0000
     59 H           7.0967    5.5519    1.8513 H       1  UNL1        0.0000
     60 H           6.6312    5.1772    3.5112 H       1  UNL1        0.0000
     61 C           1.8061    6.1983    2.7825 C.3     1  UNL1        0.0000
     62 H           2.2907    6.6136    1.9039 H       1  UNL1        0.0000
     63 H           1.1175    6.9463    3.1742 H       1  UNL1        0.0000
     64 H           1.2282    5.3277    2.4777 H       1  UNL1        0.0000
     65 C           4.5074    5.3358    0.7854 C.3     1  UNL1        0.0000
     66 H           3.6085    4.7967    0.4923 H       1  UNL1        0.0000
     67 H           5.2142    5.2976   -0.0430 H       1  UNL1        0.0000
     68 H           4.2515    6.3787    0.9572 H       1  UNL1        0.0000
@<TRIPOS>BOND
     1    67    65    1
     2    31    29    1
     3    66    65    1
     4    32    29    1
     5    20     6    1
     6    30    29    1
     7    29    19    1
     8    65    68    1
     9    65     8    1
    10    39    37    1
    11    40    37    1
    12    35    33    1
    13     6     1    1
    14    37     8    1
    15    37    38    1
    16    59    57    1
    17    46    45    1
    18    62    61    1
    19    48    45    1
    20     8    57    1
    21     8     2    1
    22    23    21    1
    23    34    33    1
    24    19    33    1
    25    19    21    1
    26    19     3    1
    27    33    36    1
    28    24    21    1
    29    64    61    1
    30    45    47    1
    31    45    16    1
    32    57    58    1
    33    57    60    1
    34    21    22    1
    35    61    63    1
    36    61    14    1
    37     1     2    1
    38     1     3    1
    39     1     5    1
    40     2    14    1
    41     2     4    1
    42     3    16    1
    43     3     7    1
    44    44    41    1
    45    16    25    1
    46    16    49    1
    47    14    41    1
    48    14    53    1
    49    28    25    1
    50    50    49    1
    51    41    43    1
    52    41    42    1
    53     4    11    1
    54    25    27    1
    55    25    26    1
    56    49    51    1
    57    49    52    1
    58     5    11   ar
    59     5    15   ar
    60     7    15    1
    61    54    53    1
    62    53    55    1
    63    53    56    1
    64    11    12   ar
    65    15     9   ar
    66    12    13    1
    67    12    17   ar
    68     9    10    1
    69     9    17   ar
    70    17    18    1
