@<TRIPOS>MOLECULE
CSD_code = YUCZAZ | q = 0 | S = 0 | Stoichiometry = C40H47CoN2P4 | MND = 5
 94 101 0 0 0
SMALL
GASTEIGER

@<TRIPOS>ATOM
      1 CO          3.5350    5.0734    4.5669 Co.oh   1  UNL1        0.0000
      2 P           5.5809    5.4457    5.3548 P.3     1  UNL1        0.0000
      3 P           3.2410    2.9781    3.7204 P.3     1  UNL1        0.0000
      4 P           3.8723    6.1213    2.6055 P.3     1  UNL1        0.0000
      5 P           1.5175    6.0913    4.9747 P.3     1  UNL1        0.0000
      6 N           5.8379    3.9934    6.1965 N.ar    1  UNL1        0.0000
      7 C           4.5057    1.6650    3.5636 C.ar    1  UNL1        0.0000
      8 C           3.3891    4.0221    6.3487 C.3     1  UNL1        0.0000
      9 C           2.1690    2.5546    2.2983 C.ar    1  UNL1        0.0000
     10 C           7.1777    5.5424    4.4673 C.ar    1  UNL1        0.0000
     11 N           2.2526    2.3767    4.9633 N.ar    1  UNL1        0.0000
     12 C           4.6908    3.3061    6.5125 C.ar    1  UNL1        0.0000
     13 C           5.5272    1.8562    2.6371 C.ar    1  UNL1        0.0000
     14 H           5.5096    2.7405    2.0122 H       1  UNL1        0.0000
     15 C           2.5646    1.8192    1.1882 C.ar    1  UNL1        0.0000
     16 H           3.5552    1.3896    1.1450 H       1  UNL1        0.0000
     17 C           3.1936    4.8429    7.6308 C.3     1  UNL1        0.0000
     18 H           2.2500    5.3795    7.6291 H       1  UNL1        0.0000
     19 H           4.0026    5.5616    7.7534 H       1  UNL1        0.0000
     20 H           3.2055    4.1744    8.4947 H       1  UNL1        0.0000
     21 C           4.5304    0.5362    4.3731 C.ar    1  UNL1        0.0000
     22 H           3.7472    0.3758    5.0985 H       1  UNL1        0.0000
     23 C           5.9324    6.7289    6.6193 C.ar    1  UNL1        0.0000
     24 C           5.5573   -0.3825    4.2520 C.ar    1  UNL1        0.0000
     25 H           5.5712   -1.2561    4.8876 H       1  UNL1        0.0000
     26 C           2.3253    3.0011    6.1862 C.ar    1  UNL1        0.0000
     27 C           1.4097    2.4060    7.0135 C.ar    1  UNL1        0.0000
     28 H           1.2197    2.6449    8.0423 H       1  UNL1        0.0000
     29 C           7.6348    4.4070    3.8023 C.ar    1  UNL1        0.0000
     30 H           7.0635    3.4911    3.8645 H       1  UNL1        0.0000
     31 C           5.0536    2.1130    7.0756 C.ar    1  UNL1        0.0000
     32 H           4.3910    1.3569    7.4509 H       1  UNL1        0.0000
     33 C           6.5482    0.9336    2.5108 C.ar    1  UNL1        0.0000
     34 H           7.3328    1.0906    1.7836 H       1  UNL1        0.0000
     35 C           1.2981    1.3916    5.0148 C.ar    1  UNL1        0.0000
     36 H           1.0735    0.7830    4.1591 H       1  UNL1        0.0000
     37 C           1.6359    7.6381    5.9748 C.3     1  UNL1        0.0000
     38 H           0.6462    7.9681    6.2888 H       1  UNL1        0.0000
     39 H           2.0947    8.4129    5.3631 H       1  UNL1        0.0000
     40 H           2.2629    7.4769    6.8469 H       1  UNL1        0.0000
     41 C           5.2908    7.9551    6.4929 C.ar    1  UNL1        0.0000
     42 H           4.6008    8.0948    5.6715 H       1  UNL1        0.0000
     43 C           8.8088    4.4474    3.0753 C.ar    1  UNL1        0.0000
     44 H           9.1627    3.5571    2.5755 H       1  UNL1        0.0000
     45 C           6.9260    3.2328    6.5488 C.ar    1  UNL1        0.0000
     46 H           7.9314    3.5676    6.3754 H       1  UNL1        0.0000
     47 C           0.8859    3.0962    2.3286 C.ar    1  UNL1        0.0000
     48 H           0.5952    3.6808    3.1919 H       1  UNL1        0.0000
     49 C           0.1194    5.2605    5.8432 C.3     1  UNL1        0.0000
     50 H          -0.7233    5.9469    5.9247 H       1  UNL1        0.0000
     51 H           0.4113    4.9238    6.8320 H       1  UNL1        0.0000
     52 H          -0.1846    4.3837    5.2744 H       1  UNL1        0.0000
     53 C           1.6836    1.6194    0.1385 C.ar    1  UNL1        0.0000
     54 H           1.9972    1.0411   -0.7191 H       1  UNL1        0.0000
     55 C           6.4693    2.0676    7.0902 C.ar    1  UNL1        0.0000
     56 H           7.0726    1.2615    7.4629 H       1  UNL1        0.0000
     57 C           5.4552    5.8786    1.6972 C.3     1  UNL1        0.0000
     58 H           5.3817    6.3226    0.7045 H       1  UNL1        0.0000
     59 H           5.6682    4.8170    1.6000 H       1  UNL1        0.0000
     60 H           6.2722    6.3448    2.2417 H       1  UNL1        0.0000
     61 C           9.0700    6.7666    3.6252 C.ar    1  UNL1        0.0000
     62 H           9.6279    7.6895    3.5536 H       1  UNL1        0.0000
     63 C           7.8978    6.7280    4.3597 C.ar    1  UNL1        0.0000
     64 H           7.5440    7.6204    4.8579 H       1  UNL1        0.0000
     65 C           0.4711    6.7938    3.6188 C.3     1  UNL1        0.0000
     66 H           0.0334    5.9850    3.0373 H       1  UNL1        0.0000
     67 H           1.0616    7.4200    2.9560 H       1  UNL1        0.0000
     68 H          -0.3320    7.3913    4.0500 H       1  UNL1        0.0000
     69 C           6.3931    8.7498    8.4642 C.ar    1  UNL1        0.0000
     70 H           6.5738    9.5345    9.1845 H       1  UNL1        0.0000
     71 C           0.0060    2.8902    1.2860 C.ar    1  UNL1        0.0000
     72 H          -0.9915    3.3052    1.3256 H       1  UNL1        0.0000
     73 C           2.7669    5.7718    1.1713 C.3     1  UNL1        0.0000
     74 H           2.9295    6.4999    0.3770 H       1  UNL1        0.0000
     75 H           1.7220    5.7741    1.4622 H       1  UNL1        0.0000
     76 H           3.0088    4.7749    0.8044 H       1  UNL1        0.0000
     77 C           9.5310    5.6273    2.9864 C.ar    1  UNL1        0.0000
     78 H          10.4496    5.6598    2.4189 H       1  UNL1        0.0000
     79 C           6.5671   -0.1875    3.3247 C.ar    1  UNL1        0.0000
     80 H           7.3690   -0.9059    3.2363 H       1  UNL1        0.0000
     81 C           0.7608    1.3908    6.2682 C.ar    1  UNL1        0.0000
     82 H          -0.0112    0.7376    6.6297 H       1  UNL1        0.0000
     83 C           5.5227    8.9653    7.4081 C.ar    1  UNL1        0.0000
     84 H           5.0231    9.9182    7.3040 H       1  UNL1        0.0000
     85 C           3.9171    7.9658    2.5924 C.3     1  UNL1        0.0000
     86 H           4.7710    8.2799    3.1923 H       1  UNL1        0.0000
     87 H           3.0150    8.3830    3.0325 H       1  UNL1        0.0000
     88 H           4.0350    8.3415    1.5764 H       1  UNL1        0.0000
     89 C           0.4059    2.1500    0.1833 C.ar    1  UNL1        0.0000
     90 H          -0.2774    1.9881   -0.6375 H       1  UNL1        0.0000
     91 C           6.8023    6.5162    7.6822 C.ar    1  UNL1        0.0000
     92 H           7.2918    5.5592    7.7940 H       1  UNL1        0.0000
     93 C           7.0269    7.5248    8.6015 C.ar    1  UNL1        0.0000
     94 H           7.7000    7.3566    9.4300 H       1  UNL1        0.0000
@<TRIPOS>BOND
     1    54    53    1
     2    90    89    1
     3    53    89   ar
     4    53    15   ar
     5    89    71   ar
     6    74    73    1
     7    58    57    1
     8    76    73    1
     9    16    15    1
    10    73    75    1
    11    73     4    1
    12    15     9   ar
    13    71    72    1
    14    71    47   ar
    15    88    85    1
    16    59    57    1
    17    57    60    1
    18    57     4    1
    19    34    33    1
    20    14    13    1
    21     9    47   ar
    22     9     3    1
    23    47    48    1
    24    78    77    1
    25    33    13   ar
    26    33    79   ar
    27    44    43    1
    28    85     4    1
    29    85    87    1
    30    85    86    1
    31     4     1    1
    32    13     7   ar
    33    67    65    1
    34    77    43   ar
    35    77    61   ar
    36    66    65    1
    37    43    29   ar
    38    80    79    1
    39    79    24   ar
    40    62    61    1
    41     7     3    1
    42     7    21   ar
    43    65    68    1
    44    65     5    1
    45    61    63   ar
    46     3     1    1
    47     3    11    1
    48    29    30    1
    49    29    10   ar
    50    36    35    1
    51    24    21   ar
    52    24    25    1
    53    63    10   ar
    54    63    64    1
    55    21    22    1
    56    10     2    1
    57     1     5    1
    58     1     2    1
    59     1     8    1
    60    11    35   ar
    61    11    26   ar
    62     5    49    1
    63     5    37    1
    64    35    81   ar
    65    52    49    1
    66     2     6    1
    67     2    23    1
    68    39    37    1
    69    42    41    1
    70    49    50    1
    71    49    51    1
    72    37    38    1
    73    37    40    1
    74    26     8    1
    75    26    27   ar
    76     6    12   ar
    77     6    45   ar
    78    81    82    1
    79    81    27   ar
    80     8    12    1
    81     8    17    1
    82    46    45    1
    83    41    23   ar
    84    41    83   ar
    85    12    31   ar
    86    45    55   ar
    87    23    91   ar
    88    27    28    1
    89    31    55   ar
    90    31    32    1
    91    55    56    1
    92    84    83    1
    93    83    69   ar
    94    18    17    1
    95    17    19    1
    96    17    20    1
    97    91    92    1
    98    91    93   ar
    99    69    93   ar
   100    69    70    1
   101    93    94    1
