@<TRIPOS>MOLECULE
CSD_code = ZOVSUA | q = 0 | S = 0 | Stoichiometry = C20H37Cl2CoN2P2 | MND = 5
 64 66 0 0 0
SMALL
GASTEIGER

@<TRIPOS>ATOM
      1 CO          0.1729    5.4759    3.5401 Co.oh   1  UNL1        0.0000
      2 CL          0.1037    4.8444    5.5767 Cl      1  UNL1        0.0000
      3 CL          1.1113    5.0469    1.6655 Cl      1  UNL1        0.0000
      4 P          -1.6016    4.2602    3.0607 P.3     1  UNL1        0.0000
      5 P           1.6146    7.0680    4.0433 P.3     1  UNL1        0.0000
      6 C          -0.6565    6.8080    2.4446 C.ar    1  UNL1        0.0000
      7 N          -2.3157    5.1870    1.8435 N.pl3   1  UNL1        0.0000
      8 N           1.1768    8.2694    2.9408 N.pl3   1  UNL1        0.0000
      9 C          -1.8183    6.4917    1.7447 C.ar    1  UNL1        0.0000
     10 C          -2.4330    7.4757    0.9716 C.ar    1  UNL1        0.0000
     11 C          -1.8581    8.7285    0.8755 C.ar    1  UNL1        0.0000
     12 C          -0.6760    9.0274    1.5255 C.ar    1  UNL1        0.0000
     13 C          -0.0492    8.0531    2.3015 C.ar    1  UNL1        0.0000
     14 C          -3.4350    4.7821    1.0221 C.3     1  UNL1        0.0000
     15 C           1.9011    9.4994    2.7077 C.3     1  UNL1        0.0000
     16 C          -1.5361    2.5195    2.4129 C.3     1  UNL1        0.0000
     17 C          -0.8487    2.4323    1.0556 C.3     1  UNL1        0.0000
     18 C          -0.7973    1.6849    3.4568 C.3     1  UNL1        0.0000
     19 C          -2.8904    4.1717    4.4232 C.3     1  UNL1        0.0000
     20 C          -4.1010    3.2781    4.1767 C.3     1  UNL1        0.0000
     21 C          -3.3265    5.6069    4.7067 C.3     1  UNL1        0.0000
     22 C           3.4598    6.8884    3.9037 C.3     1  UNL1        0.0000
     23 C           3.9150    6.6612    2.4673 C.3     1  UNL1        0.0000
     24 C           3.8554    5.7150    4.7975 C.3     1  UNL1        0.0000
     25 C           1.3776    7.8485    5.7345 C.3     1  UNL1        0.0000
     26 C           2.4028    8.8873    6.1762 C.3     1  UNL1        0.0000
     27 C          -0.0309    8.4369    5.7517 C.3     1  UNL1        0.0000
     28 H          -3.3468    7.2674    0.4396 H       1  UNL1        0.0000
     29 H          -2.3358    9.4851    0.2708 H       1  UNL1        0.0000
     30 H          -0.2432   10.0085    1.4179 H       1  UNL1        0.0000
     31 H          -3.6024    3.7145    1.1420 H       1  UNL1        0.0000
     32 H          -4.3531    5.3130    1.2964 H       1  UNL1        0.0000
     33 H          -3.2225    4.9816   -0.0319 H       1  UNL1        0.0000
     34 H           2.8751    9.4399    3.1873 H       1  UNL1        0.0000
     35 H           2.0531    9.6538    1.6358 H       1  UNL1        0.0000
     36 H           1.3662   10.3670    3.1094 H       1  UNL1        0.0000
     37 H          -2.5661    2.1543    2.3181 H       1  UNL1        0.0000
     38 H          -1.2986    3.1144    0.3380 H       1  UNL1        0.0000
     39 H           0.2034    2.6885    1.1425 H       1  UNL1        0.0000
     40 H          -0.9270    1.4174    0.6673 H       1  UNL1        0.0000
     41 H          -1.2992    1.7219    4.4225 H       1  UNL1        0.0000
     42 H          -0.7336    0.6453    3.1388 H       1  UNL1        0.0000
     43 H           0.2152    2.0662    3.5861 H       1  UNL1        0.0000
     44 H          -2.3469    3.8014    5.2993 H       1  UNL1        0.0000
     45 H          -3.8244    2.2293    4.0999 H       1  UNL1        0.0000
     46 H          -4.7862    3.3760    5.0184 H       1  UNL1        0.0000
     47 H          -4.6372    3.5722    3.2773 H       1  UNL1        0.0000
     48 H          -2.4540    6.2434    4.8543 H       1  UNL1        0.0000
     49 H          -3.9049    6.0101    3.8768 H       1  UNL1        0.0000
     50 H          -3.9366    5.6507    5.6071 H       1  UNL1        0.0000
     51 H           3.9212    7.8077    4.2846 H       1  UNL1        0.0000
     52 H           3.5513    7.4449    1.8070 H       1  UNL1        0.0000
     53 H           5.0034    6.6477    2.4237 H       1  UNL1        0.0000
     54 H           3.5426    5.7117    2.0934 H       1  UNL1        0.0000
     55 H           3.5375    5.8763    5.8267 H       1  UNL1        0.0000
     56 H           3.3845    4.8012    4.4362 H       1  UNL1        0.0000
     57 H           4.9348    5.5718    4.7863 H       1  UNL1        0.0000
     58 H           1.4025    7.0061    6.4346 H       1  UNL1        0.0000
     59 H           3.3956    8.4580    6.2877 H       1  UNL1        0.0000
     60 H           2.4511    9.7222    5.4809 H       1  UNL1        0.0000
     61 H           2.1056    9.2817    7.1475 H       1  UNL1        0.0000
     62 H          -0.7540    7.6903    5.4233 H       1  UNL1        0.0000
     63 H          -0.3008    8.7531    6.7577 H       1  UNL1        0.0000
     64 H          -0.1032    9.2967    5.0875 H       1  UNL1        0.0000
@<TRIPOS>BOND
     1    33    14    1
     2    29    11    1
     3    38    17    1
     4    28    10    1
     5    40    17    1
     6    11    10   ar
     7    11    12   ar
     8    10     9   ar
     9    14    31    1
    10    14    32    1
    11    14     7    1
    12    17    39    1
    13    17    16    1
    14    30    12    1
    15    12    13   ar
    16    35    15    1
    17     3     1    1
    18     9     7    1
    19     9     6   ar
    20    52    23    1
    21     7     4    1
    22    54    23    1
    23    13     6   ar
    24    13     8    1
    25    37    16    1
    26    16     4    1
    27    16    18    1
    28    53    23    1
    29     6     1    1
    30    23    22    1
    31    15     8    1
    32    15    36    1
    33    15    34    1
    34     8     5    1
    35     4     1    1
    36     4    19    1
    37    42    18    1
    38    47    20    1
    39    18    43    1
    40    18    41    1
    41     1     5    1
    42     1     2    1
    43    49    21    1
    44    22     5    1
    45    22    51    1
    46    22    24    1
    47     5    25    1
    48    45    20    1
    49    20    19    1
    50    20    46    1
    51    19    21    1
    52    19    44    1
    53    56    24    1
    54    21    48    1
    55    21    50    1
    56    57    24    1
    57    24    55    1
    58    64    27    1
    59    62    27    1
    60    60    26    1
    61    25    27    1
    62    25    26    1
    63    25    58    1
    64    27    63    1
    65    26    59    1
    66    26    61    1
