@<TRIPOS>MOLECULE
CSD_code = ZOVTOV | q = 0 | S = 0 | Stoichiometry = C22H37CoN2O2P2 | MND = 5
 66 68 0 0 0
SMALL
GASTEIGER

@<TRIPOS>ATOM
      1 CO          9.2863   14.0281    3.4763 Co.oh   1  UNL1        0.0000
      2 P          10.5684   12.4825    4.4261 P.3     1  UNL1        0.0000
      3 P           9.0334   16.2404    3.6076 P.3     1  UNL1        0.0000
      4 N           9.6092   12.0391    5.7517 N.pl3   1  UNL1        0.0000
      5 N           7.8810   16.3509    4.8467 N.pl3   1  UNL1        0.0000
      6 O           6.5453   12.9541    3.6684 O.3     1  UNL1        0.0000
      7 O          10.6286   13.8727    0.9153 O.3     1  UNL1        0.0000
      8 C           8.5347   14.1016    5.2561 C.ar    1  UNL1        0.0000
      9 C           8.7022   13.0323    6.1452 C.ar    1  UNL1        0.0000
     10 C           8.0308   13.0195    7.3635 C.ar    1  UNL1        0.0000
     11 C           7.2532   14.1067    7.7213 C.ar    1  UNL1        0.0000
     12 C           7.1856   15.2327    6.9202 C.ar    1  UNL1        0.0000
     13 C           7.8365   15.2349    5.6904 C.ar    1  UNL1        0.0000
     14 C           9.8806   10.9296    6.6388 C.3     1  UNL1        0.0000
     15 C           7.2814   17.5940    5.2797 C.3     1  UNL1        0.0000
     16 C          10.7503   10.8350    3.5662 C.3     1  UNL1        0.0000
     17 C           9.3817   10.4185    3.0398 C.3     1  UNL1        0.0000
     18 C          11.7801   10.8519    2.4427 C.3     1  UNL1        0.0000
     19 C          12.3021   12.7279    5.1247 C.3     1  UNL1        0.0000
     20 C          12.2000   13.3970    6.4927 C.3     1  UNL1        0.0000
     21 C          13.0731   13.6228    4.1589 C.3     1  UNL1        0.0000
     22 C           8.1470   17.0846    2.1888 C.3     1  UNL1        0.0000
     23 C           6.6957   16.6177    2.1304 C.3     1  UNL1        0.0000
     24 C           8.8223   16.7640    0.8579 C.3     1  UNL1        0.0000
     25 C          10.2711   17.5660    4.1081 C.3     1  UNL1        0.0000
     26 C          10.8893   17.1229    5.4296 C.3     1  UNL1        0.0000
     27 C          11.3533   17.7660    3.0540 C.3     1  UNL1        0.0000
     28 C           7.6087   13.3606    3.4854 C.3     1  UNL1        0.0000
     29 C          10.0361   13.9372    1.9046 C.3     1  UNL1        0.0000
     30 H           8.1028   12.1782    8.0343 H       1  UNL1        0.0000
     31 H           6.7210   14.0916    8.6612 H       1  UNL1        0.0000
     32 H           6.6245   16.0900    7.2569 H       1  UNL1        0.0000
     33 H          10.7647   10.3930    6.3010 H       1  UNL1        0.0000
     34 H          10.0643   11.2732    7.6612 H       1  UNL1        0.0000
     35 H           9.0358   10.2339    6.6572 H       1  UNL1        0.0000
     36 H           7.4213   18.3529    4.5125 H       1  UNL1        0.0000
     37 H           6.2079   17.4602    5.4399 H       1  UNL1        0.0000
     38 H           7.7246   17.9580    6.2135 H       1  UNL1        0.0000
     39 H          11.0780   10.1077    4.3207 H       1  UNL1        0.0000
     40 H           8.6351   10.4557    3.8316 H       1  UNL1        0.0000
     41 H           9.0667   11.0916    2.2436 H       1  UNL1        0.0000
     42 H           9.4161    9.4048    2.6432 H       1  UNL1        0.0000
     43 H          12.7873   10.9959    2.8275 H       1  UNL1        0.0000
     44 H          11.7575    9.9000    1.9129 H       1  UNL1        0.0000
     45 H          11.5599   11.6395    1.7269 H       1  UNL1        0.0000
     46 H          12.8055   11.7575    5.2151 H       1  UNL1        0.0000
     47 H          11.8880   12.6942    7.2607 H       1  UNL1        0.0000
     48 H          13.1636   13.8119    6.7856 H       1  UNL1        0.0000
     49 H          11.4725   14.2085    6.4594 H       1  UNL1        0.0000
     50 H          13.1415   13.1783    3.1692 H       1  UNL1        0.0000
     51 H          12.5568   14.5769    4.0575 H       1  UNL1        0.0000
     52 H          14.0815   13.8090    4.5266 H       1  UNL1        0.0000
     53 H           8.1888   18.1695    2.3571 H       1  UNL1        0.0000
     54 H           6.1222   16.9465    2.9920 H       1  UNL1        0.0000
     55 H           6.2168   17.0052    1.2322 H       1  UNL1        0.0000
     56 H           6.6635   15.5292    2.0934 H       1  UNL1        0.0000
     57 H           9.8984   16.9077    0.8986 H       1  UNL1        0.0000
     58 H           8.6292   15.7275    0.5908 H       1  UNL1        0.0000
     59 H           8.4188   17.3992    0.0702 H       1  UNL1        0.0000
     60 H           9.7247   18.5058    4.2577 H       1  UNL1        0.0000
     61 H          10.1243   16.9417    6.1836 H       1  UNL1        0.0000
     62 H          11.4432   16.1972    5.2821 H       1  UNL1        0.0000
     63 H          11.5758   17.8784    5.8094 H       1  UNL1        0.0000
     64 H          10.9705   18.3022    2.1891 H       1  UNL1        0.0000
     65 H          12.1784   18.3440    3.4692 H       1  UNL1        0.0000
     66 H          11.7429   16.8025    2.7260 H       1  UNL1        0.0000
@<TRIPOS>BOND
     1    59    24    1
     2    58    24    1
     3    24    57    1
     4    24    22    1
     5     7    29    1
     6    55    23    1
     7    45    18    1
     8    29     1    1
     9    44    18    1
    10    56    23    1
    11    23    22    1
    12    23    54    1
    13    22    53    1
    14    22     3    1
    15    64    27    1
    16    41    17    1
    17    18    43    1
    18    18    16    1
    19    42    17    1
    20    66    27    1
    21    17    16    1
    22    17    40    1
    23    27    65    1
    24    27    25    1
    25    50    21    1
    26     1    28    1
    27     1     3    1
    28     1     2    1
    29     1     8    1
    30    28     6    1
    31    16    39    1
    32    16     2    1
    33     3    25    1
    34     3     5    1
    35    51    21    1
    36    25    60    1
    37    25    26    1
    38    21    52    1
    39    21    19    1
    40     2    19    1
    41     2     4    1
    42    36    15    1
    43     5    15    1
    44     5    13    1
    45    19    46    1
    46    19    20    1
    47     8    13   ar
    48     8     9   ar
    49    15    37    1
    50    15    38    1
    51    62    26    1
    52    26    63    1
    53    26    61    1
    54    13    12   ar
    55     4     9    1
    56     4    14    1
    57     9    10   ar
    58    33    14    1
    59    49    20    1
    60    20    48    1
    61    20    47    1
    62    14    35    1
    63    14    34    1
    64    12    32    1
    65    12    11   ar
    66    10    11   ar
    67    10    30    1
    68    11    31    1
