@<TRIPOS>MOLECULE
CSD_code = COHKUG | q = 1 | S = 0 | Stoichiometry = C60H44CoN6S4(1+) | MND = 6
 115 128 0 0 0
SMALL
GASTEIGER

@<TRIPOS>ATOM
      1 CO          9.0014    2.1943    4.0181 Co.oh   1  UNL1        0.0000
      2 S          11.1482    2.9929    3.5342 S.3     1  UNL1        0.0000
      3 S           6.8609    1.7575    4.8580 S.3     1  UNL1        0.0000
      4 S           9.9129    0.5149    5.3711 S.3     1  UNL1        0.0000
      5 S           8.0881    3.5104    2.3121 S.3     1  UNL1        0.0000
      6 N          12.2097    5.0753    4.8827 N.pl3   1  UNL1        0.0000
      7 H          12.0470    5.7592    5.6226 H       1  UNL1        0.0000
      8 N           9.0141    3.5042    5.2813 N.ar    1  UNL1        0.0000
      9 N           5.8275    3.2005    6.8908 N.pl3   1  UNL1        0.0000
     10 H           5.9988    3.9712    7.5373 H       1  UNL1        0.0000
     11 N          10.4168   -1.9510    4.3985 N.pl3   1  UNL1        0.0000
     12 H          10.3625   -2.5489    3.5733 H       1  UNL1        0.0000
     13 N           8.9872    0.8893    2.7494 N.ar    1  UNL1        0.0000
     14 N           7.5592    2.4816   -0.1253 N.pl3   1  UNL1        0.0000
     15 H           7.6038    1.6421   -0.7038 H       1  UNL1        0.0000
     16 C          13.9564    4.4022    3.2737 C.ar    1  UNL1        0.0000
     17 H          13.3771    3.5714    2.9089 H       1  UNL1        0.0000
     18 C          15.2125    4.6469    2.7473 C.ar    1  UNL1        0.0000
     19 H          15.5934    3.9989    1.9730 H       1  UNL1        0.0000
     20 C          15.9779    5.7062    3.2027 C.ar    1  UNL1        0.0000
     21 H          16.9559    5.8884    2.7859 H       1  UNL1        0.0000
     22 C          15.4810    6.5321    4.1994 C.ar    1  UNL1        0.0000
     23 H          16.0699    7.3601    4.5623 H       1  UNL1        0.0000
     24 C          14.2302    6.2980    4.7324 C.ar    1  UNL1        0.0000
     25 H          13.8428    6.9417    5.5104 H       1  UNL1        0.0000
     26 C          13.4547    5.2299    4.2729 C.ar    1  UNL1        0.0000
     27 C          11.2003    4.2190    4.7115 C.3     1  UNL1        0.0000
     28 C          10.0476    4.3352    5.5406 C.ar    1  UNL1        0.0000
     29 C           9.6779    5.2226    6.5879 C.ar    1  UNL1        0.0000
     30 C           8.3641    4.9064    6.9281 C.ar    1  UNL1        0.0000
     31 C           7.9857    3.8135    6.1014 C.ar    1  UNL1        0.0000
     32 C           6.8276    2.9865    6.0331 C.3     1  UNL1        0.0000
     33 C           4.5828    2.6019    7.0863 C.ar    1  UNL1        0.0000
     34 C           4.0743    1.5605    6.3167 C.ar    1  UNL1        0.0000
     35 H           4.6473    1.1517    5.5020 H       1  UNL1        0.0000
     36 C           2.8204    1.0482    6.5991 C.ar    1  UNL1        0.0000
     37 H           2.4345    0.2408    5.9961 H       1  UNL1        0.0000
     38 C           2.0635    1.5593    7.6389 C.ar    1  UNL1        0.0000
     39 H           1.0871    1.1531    7.8508 H       1  UNL1        0.0000
     40 C           2.5671    2.5982    8.4068 C.ar    1  UNL1        0.0000
     41 H           1.9848    3.0044    9.2193 H       1  UNL1        0.0000
     42 C           3.8159    3.1175    8.1349 C.ar    1  UNL1        0.0000
     43 H           4.2086    3.9280    8.7337 H       1  UNL1        0.0000
     44 C          10.4856    6.2754    7.2066 C.ar    1  UNL1        0.0000
     45 C          11.7245    5.9783    7.7785 C.ar    1  UNL1        0.0000
     46 H          12.0820    4.9570    7.7803 H       1  UNL1        0.0000
     47 C          12.4739    6.9749    8.3786 C.ar    1  UNL1        0.0000
     48 H          13.4278    6.7326    8.8226 H       1  UNL1        0.0000
     49 C          11.9981    8.2750    8.4157 C.ar    1  UNL1        0.0000
     50 H          12.5838    9.0511    8.8835 H       1  UNL1        0.0000
     51 C          10.7642    8.5745    7.8610 C.ar    1  UNL1        0.0000
     52 H          10.3869    9.5850    7.8968 H       1  UNL1        0.0000
     53 C          10.0092    7.5829    7.2629 C.ar    1  UNL1        0.0000
     54 H           9.0481    7.8156    6.8295 H       1  UNL1        0.0000
     55 C           7.5602    5.5909    7.9422 C.ar    1  UNL1        0.0000
     56 C           8.0397    5.7321    9.2422 C.ar    1  UNL1        0.0000
     57 H           9.0011    5.3143    9.5010 H       1  UNL1        0.0000
     58 C           7.2870    6.3942   10.1942 C.ar    1  UNL1        0.0000
     59 H           7.6660    6.4955   11.1996 H       1  UNL1        0.0000
     60 C           6.0526    6.9289    9.8617 C.ar    1  UNL1        0.0000
     61 H           5.4687    7.4466   10.6069 H       1  UNL1        0.0000
     62 C           5.5741    6.8076    8.5675 C.ar    1  UNL1        0.0000
     63 H           4.6202    7.2360    8.2984 H       1  UNL1        0.0000
     64 C           6.3211    6.1433    7.6108 C.ar    1  UNL1        0.0000
     65 H           5.9621    6.0787    6.5920 H       1  UNL1        0.0000
     66 C          11.1234   -2.0421    6.7617 C.ar    1  UNL1        0.0000
     67 H          10.7580   -1.0504    6.9656 H       1  UNL1        0.0000
     68 C          11.7153   -2.7772    7.7735 C.ar    1  UNL1        0.0000
     69 H          11.8061   -2.3413    8.7563 H       1  UNL1        0.0000
     70 C          12.1869   -4.0568    7.5371 C.ar    1  UNL1        0.0000
     71 H          12.6479   -4.6212    8.3323 H       1  UNL1        0.0000
     72 C          12.0612   -4.6111    6.2723 C.ar    1  UNL1        0.0000
     73 H          12.4230   -5.6090    6.0782 H       1  UNL1        0.0000
     74 C          11.4711   -3.8886    5.2558 C.ar    1  UNL1        0.0000
     75 H          11.3712   -4.3214    4.2694 H       1  UNL1        0.0000
     76 C          10.9998   -2.5939    5.4906 C.ar    1  UNL1        0.0000
     77 C           9.9207   -0.7266    4.2088 C.3     1  UNL1        0.0000
     78 C           9.3809   -0.3899    2.9340 C.ar    1  UNL1        0.0000
     79 C           9.2165   -1.1064    1.7172 C.ar    1  UNL1        0.0000
     80 C           8.7301   -0.1928    0.7838 C.ar    1  UNL1        0.0000
     81 C           8.5840    1.0442    1.4690 C.ar    1  UNL1        0.0000
     82 C           8.0578    2.3161    1.1016 C.3     1  UNL1        0.0000
     83 C           6.9937    3.5664   -0.7956 C.ar    1  UNL1        0.0000
     84 C           6.8712    4.8478   -0.2682 C.ar    1  UNL1        0.0000
     85 H           7.2225    5.0668    0.7256 H       1  UNL1        0.0000
     86 C           6.2971    5.8506   -1.0295 C.ar    1  UNL1        0.0000
     87 H           6.2070    6.8415   -0.6118 H       1  UNL1        0.0000
     88 C           5.8429    5.5954   -2.3116 C.ar    1  UNL1        0.0000
     89 H           5.3962    6.3838   -2.8965 H       1  UNL1        0.0000
     90 C           5.9670    4.3200   -2.8413 C.ar    1  UNL1        0.0000
     91 H           5.6181    4.1108   -3.8407 H       1  UNL1        0.0000
     92 C           6.5381    3.3121   -2.0922 C.ar    1  UNL1        0.0000
     93 H           6.6356    2.3175   -2.5057 H       1  UNL1        0.0000
     94 C           9.4958   -2.5194    1.4559 C.ar    1  UNL1        0.0000
     95 C           8.9088   -3.5176    2.2367 C.ar    1  UNL1        0.0000
     96 H           8.2276   -3.2439    3.0315 H       1  UNL1        0.0000
     97 C           9.1614   -4.8517    1.9702 C.ar    1  UNL1        0.0000
     98 H           8.6976   -5.6149    2.5769 H       1  UNL1        0.0000
     99 C           9.9984   -5.2053    0.9248 C.ar    1  UNL1        0.0000
    100 H          10.1942   -6.2461    0.7183 H       1  UNL1        0.0000
    101 C          10.5745   -4.2205    0.1385 C.ar    1  UNL1        0.0000
    102 H          11.2201   -4.4935   -0.6822 H       1  UNL1        0.0000
    103 C          10.3244   -2.8859    0.3979 C.ar    1  UNL1        0.0000
    104 H          10.7746   -2.1181   -0.2133 H       1  UNL1        0.0000
    105 C           8.4346   -0.4870   -0.6195 C.ar    1  UNL1        0.0000
    106 C           7.5856   -1.5399   -0.9522 C.ar    1  UNL1        0.0000
    107 H           7.1333   -2.1249   -0.1655 H       1  UNL1        0.0000
    108 C           7.3185   -1.8274   -2.2777 C.ar    1  UNL1        0.0000
    109 H           6.6571   -2.6437   -2.5248 H       1  UNL1        0.0000
    110 C           7.8976   -1.0746   -3.2868 C.ar    1  UNL1        0.0000
    111 H           7.6878   -1.3026   -4.3203 H       1  UNL1        0.0000
    112 C           8.7555   -0.0354   -2.9666 C.ar    1  UNL1        0.0000
    113 H           9.2220    0.5447   -3.7486 H       1  UNL1        0.0000
    114 C           9.0253    0.2589   -1.6418 C.ar    1  UNL1        0.0000
    115 H           9.7225    1.0483   -1.3937 H       1  UNL1        0.0000
@<TRIPOS>BOND
     1   111   110    1
     2    91    90    1
     3   113   112    1
     4   110   112   ar
     5   110   108   ar
     6   112   114   ar
     7    89    88    1
     8    90    88   ar
     9    90    92   ar
    10   109   108    1
    11    93    92    1
    12    88    86   ar
    13   108   106   ar
    14    92    83   ar
    15   114   115    1
    16   114   105   ar
    17    86    87    1
    18    86    84   ar
    19   106   105   ar
    20   106   107    1
    21    83    84   ar
    22    83    14    1
    23    15    14    1
    24   102   101    1
    25   105    80    1
    26    84    85    1
    27   104   103    1
    28    14    82    1
    29   101   103   ar
    30   101    99   ar
    31   103    94   ar
    32   100    99    1
    33    80    81   ar
    34    80    79   ar
    35    99    97   ar
    36    82    81    1
    37    82     5    1
    38    94    79    1
    39    94    95   ar
    40    81    13   ar
    41    79    78   ar
    42    97    95   ar
    43    97    98    1
    44    19    18    1
    45    95    96    1
    46     5     1    1
    47    18    20   ar
    48    18    16   ar
    49    13    78   ar
    50    13     1    1
    51    21    20    1
    52    17    16    1
    53    78    77    1
    54    20    22   ar
    55    16    26   ar
    56     2     1    1
    57     2    27    1
    58    12    11    1
    59     1     3    1
    60     1     8    1
    61     1     4    1
    62    22    23    1
    63    22    24   ar
    64    77    11    1
    65    77     4    1
    66    75    74    1
    67    26    24   ar
    68    26     6    1
    69    11    76    1
    70    27     6    1
    71    27    28    1
    72    24    25    1
    73     3    32    1
    74     6     7    1
    75    74    76   ar
    76    74    72   ar
    77     8    28   ar
    78     8    31   ar
    79    76    66   ar
    80    35    34    1
    81    28    29   ar
    82    37    36    1
    83    32    31    1
    84    32     9    1
    85    73    72    1
    86    31    30   ar
    87    72    70   ar
    88    34    36   ar
    89    34    33   ar
    90    29    30   ar
    91    29    44    1
    92    65    64    1
    93    36    38   ar
    94    66    67    1
    95    66    68   ar
    96    54    53    1
    97     9    33    1
    98     9    10    1
    99    30    55    1
   100    33    42   ar
   101    44    53   ar
   102    44    45   ar
   103    53    51   ar
   104    70    68   ar
   105    70    71    1
   106    64    55   ar
   107    64    62   ar
   108    38    39    1
   109    38    40   ar
   110    68    69    1
   111    45    46    1
   112    45    47   ar
   113    51    52    1
   114    51    49   ar
   115    55    56   ar
   116    42    40   ar
   117    42    43    1
   118    63    62    1
   119    47    49   ar
   120    47    48    1
   121    40    41    1
   122    49    50    1
   123    62    60   ar
   124    56    57    1
   125    56    58   ar
   126    60    58   ar
   127    60    61    1
   128    58    59    1
