@<TRIPOS>MOLECULE
CSD_code = CUKLID | q = 0 | S = 0 | Stoichiometry = C30H26CoN4O4P | MND = 6
 66 73 0 0 0
SMALL
GASTEIGER

@<TRIPOS>ATOM
      1 CO         -2.6031    2.1101    3.2359 Co.oh   1  UNL1        0.0000
      2 C          -4.3577    0.2366    4.3005 C.2     1  UNL1        0.0000
      3 P          -0.6783    3.3654    3.4715 P.3     1  UNL1        0.0000
      4 C          -3.5515   -0.0571    5.3964 C.3     1  UNL1        0.0000
      5 N          -1.6496    0.5639    3.8221 N.3     1  UNL1        1.0000
      6 C          -0.9917    5.1247    3.1117 C.ar    1  UNL1        0.0000
      7 N          -2.8609    2.3207    5.1151 N.3     1  UNL1        0.0000
      8 C          -1.8899    5.8389    3.9049 C.ar    1  UNL1        0.0000
      9 N          -2.2602    1.9606    1.4409 N.3     1  UNL1        0.0000
     10 C          -2.1920    7.1523    3.5950 C.ar    1  UNL1        0.0000
     11 N          -3.5432    3.6144    2.7503 N.3     1  UNL1        0.0000
     12 C          -1.6244    7.7582    2.4863 C.ar    1  UNL1        0.0000
     13 O          -0.6821    0.0422    3.2230 O.co2   1  UNL1       -1.0000
     14 C          -0.7619    7.0400    1.6751 C.ar    1  UNL1        0.0000
     15 O          -2.9184    3.4330    5.6897 O.3     1  UNL1        0.0000
     16 C          -0.4502    5.7276    1.9789 C.ar    1  UNL1        0.0000
     17 O          -1.8003    0.9444    0.8860 O.3     1  UNL1        0.0000
     18 C           0.0626    3.3052    5.1400 C.ar    1  UNL1        0.0000
     19 O          -4.3620    4.1919    3.4887 O.3     1  UNL1        0.0000
     20 C           0.7551    2.1327    5.4433 C.ar    1  UNL1        0.0000
     21 C          -1.1193   -0.9216    5.7253 C.3     1  UNL1        0.0000
     22 C           1.3335    1.9671    6.6873 C.ar    1  UNL1        0.0000
     23 C          -2.0199    0.0860    5.0635 C.3     1  UNL1        0.0000
     24 C           1.2235    2.9671    7.6414 C.ar    1  UNL1        0.0000
     25 C          -2.7439    1.1624    5.8800 C.3     1  UNL1        0.0000
     26 C           0.5466    4.1360    7.3385 C.ar    1  UNL1        0.0000
     27 C          -2.4936    1.3289    7.3525 C.3     1  UNL1        0.0000
     28 C          -0.0334    4.3103    6.0930 C.ar    1  UNL1        0.0000
     29 C          -2.0020    3.2801   -0.5384 C.2     1  UNL1        0.0000
     30 C           0.8636    3.0518    2.5388 C.ar    1  UNL1        0.0000
     31 C          -2.4803    3.1197    0.7142 C.2     1  UNL1        0.0000
     32 C           1.9405    3.8930    2.8278 C.ar    1  UNL1        0.0000
     33 C          -3.3062    4.0682    1.4652 C.2     1  UNL1        0.0000
     34 C           3.1514    3.7188    2.1902 C.ar    1  UNL1        0.0000
     35 C          -3.8385    5.2191    0.9993 C.2     1  UNL1        0.0000
     36 C           3.3054    2.6986    1.2626 C.ar    1  UNL1        0.0000
     37 C          -5.3084    0.3458    3.3150 C.2     1  UNL1        0.0000
     38 C           2.2458    1.8548    0.9857 C.ar    1  UNL1        0.0000
     39 C          -4.1669    1.0736    3.1271 C.3     1  UNL1        0.0000
     40 C           1.0240    2.0242    1.6199 C.ar    1  UNL1        0.0000
     41 H          -6.2718    0.0551    2.9699 H       1  UNL1        0.0000
     42 H          -2.3870    5.3547    4.7334 H       1  UNL1        0.0000
     43 H          -2.8868    7.6981    4.2156 H       1  UNL1        0.0000
     44 H          -1.8660    8.7827    2.2449 H       1  UNL1        0.0000
     45 H          -0.3337    7.5002    0.7966 H       1  UNL1        0.0000
     46 H           0.2095    5.1700    1.3292 H       1  UNL1        0.0000
     47 H           0.8479    1.3585    4.6925 H       1  UNL1        0.0000
     48 H           1.8736    1.0591    6.9145 H       1  UNL1        0.0000
     49 H           1.6688    2.8355    8.6164 H       1  UNL1        0.0000
     50 H           0.4661    4.9203    8.0765 H       1  UNL1        0.0000
     51 H          -0.5521    5.2287    5.8700 H       1  UNL1        0.0000
     52 H           1.8194    4.6863    3.5545 H       1  UNL1        0.0000
     53 H           3.9780    4.3760    2.4179 H       1  UNL1        0.0000
     54 H           4.2542    2.5617    0.7649 H       1  UNL1        0.0000
     55 H           2.3639    1.0516    0.2741 H       1  UNL1        0.0000
     56 H           0.2245    1.3321    1.4078 H       1  UNL1        0.0000
     57 H          -0.7994   -1.6381    4.9701 H       1  UNL1        0.0000
     58 H          -1.6509   -1.4427    6.5143 H       1  UNL1        0.0000
     59 H          -0.2360   -0.4347    6.1351 H       1  UNL1        0.0000
     60 H          -1.5100    1.7677    7.5188 H       1  UNL1        0.0000
     61 H          -2.5670    0.3740    7.8611 H       1  UNL1        0.0000
     62 H          -3.2424    2.0109    7.7524 H       1  UNL1        0.0000
     63 H          -2.1701    4.1772   -1.1018 H       1  UNL1        0.0000
     64 H          -1.4239    2.4932   -0.9903 H       1  UNL1        0.0000
     65 H          -4.4546    5.8164    1.6479 H       1  UNL1        0.0000
     66 H          -3.6625    5.5671    0.0002 H       1  UNL1        0.0000
@<TRIPOS>UNITY_ATOM_ATTR
5 1
charge 1
13 1
charge -1
@<TRIPOS>BOND
     1    63    29    1
     2    64    29    1
     3    29    31    2
     4    66    35    1
     5    55    38    1
     6    31     9    1
     7    31    33    1
     8    54    36    1
     9    45    14    1
    10    17     9    1
    11    38    36   ar
    12    38    40   ar
    13    35    33    2
    14    35    65    1
    15    36    34   ar
    16    46    16    1
    17    56    40    1
    18     9     1    1
    19    33    11    1
    20    40    30   ar
    21    14    16   ar
    22    14    12   ar
    23    16     6   ar
    24    34    53    1
    25    34    32   ar
    26    44    12    1
    27    12    10   ar
    28    30    32   ar
    29    30     3    1
    30    11     1    1
    31    11    19    1
    32    32    52    1
    33    41    37    1
    34     6     3    1
    35     6     8   ar
    36    39     1    1
    37    39    37    1
    38    39     2    1
    39    13     5    1
    40     1     3    1
    41     1     5    1
    42     1     7    1
    43    37     2    2
    44     3    18    1
    45    10     8   ar
    46    10    43    1
    47     5    23    1
    48     8    42    1
    49     2     4    1
    50    47    20    1
    51    57    21    1
    52    23     4    1
    53    23    21    1
    54    23    25    1
    55     7    15    1
    56     7    25    1
    57    18    20   ar
    58    18    28   ar
    59     4    25    1
    60    20    22   ar
    61    21    59    1
    62    21    58    1
    63    51    28    1
    64    25    27    1
    65    28    26   ar
    66    22    48    1
    67    22    24   ar
    68    26    24   ar
    69    26    50    1
    70    27    60    1
    71    27    62    1
    72    27    61    1
    73    24    49    1
