@<TRIPOS>MOLECULE
CSD_code = XEYZIN | q = 0 | S = 0 | Stoichiometry = C39H34CoN5O2 | MND = 6
 81 89 0 0 0
SMALL
GASTEIGER

@<TRIPOS>ATOM
      1 CO          0.4539    9.4245    4.4149 Co.oh   1  UNL1        0.0000
      2 O           3.2386    9.7540    5.0548 O.2     1  UNL1        0.0000
      3 N           0.2494   11.3731    4.0736 N.pl3   1  UNL1        0.0000
      4 N          -0.3340    9.2268    2.7459 N.am    1  UNL1        0.0000
      5 N          -1.1616    9.3695    5.3962 N.pl3   1  UNL1        0.0000
      6 O          -0.9973    7.7260    1.1356 O.2     1  UNL1        0.0000
      7 N           2.6915    9.1079    2.6234 N.2     1  UNL1        0.0000
      8 N           1.2786    9.6519    6.1067 N.am    1  UNL1        0.0000
      9 C          -0.9549    9.5009    6.7312 C.3     1  UNL1        0.0000
     10 C          -2.0146    9.4788    7.6690 C.2     1  UNL1        0.0000
     11 C          -0.2750   11.5608    2.8420 C.2     1  UNL1        0.0000
     12 C           0.3950    9.6556    7.1622 C.2     1  UNL1        0.0000
     13 C          -1.7090    9.6068    9.0378 C.2     1  UNL1        0.0000
     14 H          -2.5132    9.5913    9.7576 H       1  UNL1        0.0000
     15 C          -0.5940   10.3888    2.0915 C.2     1  UNL1        0.0000
     16 C          -3.3236    9.3200    7.1691 C.2     1  UNL1        0.0000
     17 H          -4.1566    9.2978    7.8561 H       1  UNL1        0.0000
     18 C           2.1022    9.3387    3.6280 C.2     1  UNL1        0.0000
     19 C           0.5072    7.5207    4.3931 C.ar    1  UNL1        0.0000
     20 C           0.5412   12.4264    4.8062 C.2     1  UNL1        0.0000
     21 H           0.9458   12.2453    5.7935 H       1  UNL1        0.0000
     22 C           2.5817    9.8304    6.1268 C.2     1  UNL1        0.0000
     23 C          -0.4057    9.7384    9.4377 C.2     1  UNL1        0.0000
     24 H          -0.1717    9.8266   10.4884 H       1  UNL1        0.0000
     25 C          -0.4987    7.9759    2.2248 C.2     1  UNL1        0.0000
     26 C          -2.3968    9.2182    4.9647 C.2     1  UNL1        0.0000
     27 H          -2.5354    9.1072    3.8984 H       1  UNL1        0.0000
     28 C          -3.5057    9.1913    5.8179 C.2     1  UNL1        0.0000
     29 H          -4.4899    9.0653    5.3948 H       1  UNL1        0.0000
     30 C          -0.0135    6.9791    3.2092 C.ar    1  UNL1        0.0000
     31 C          -0.5077   12.8544    2.3041 C.2     1  UNL1        0.0000
     32 C           0.3456   13.7401    4.3642 C.2     1  UNL1        0.0000
     33 H           0.6082   14.5610    5.0139 H       1  UNL1        0.0000
     34 C           0.6481    9.7612    8.5186 C.2     1  UNL1        0.0000
     35 H           1.6544    9.8605    8.8888 H       1  UNL1        0.0000
     36 C           3.9887    8.9803    2.0425 C.3     1  UNL1        0.0000
     37 C           0.9533    6.6584    5.3813 C.ar    1  UNL1        0.0000
     38 H           1.3431    7.0358    6.3166 H       1  UNL1        0.0000
     39 C          -1.0501   12.9621    1.0130 C.3     1  UNL1        0.0000
     40 H          -1.2287   13.9429    0.5983 H       1  UNL1        0.0000
     41 C          -0.1724   13.9579    3.1155 C.2     1  UNL1        0.0000
     42 H          -0.3307   14.9593    2.7415 H       1  UNL1        0.0000
     43 C           4.6988   10.3352    2.1127 C.3     1  UNL1        0.0000
     44 H           4.1329   11.0863    1.5661 H       1  UNL1        0.0000
     45 H           5.6937   10.2591    1.6802 H       1  UNL1        0.0000
     46 H           4.7817   10.6482    3.1502 H       1  UNL1        0.0000
     47 C           0.4048    4.7632    4.0073 C.ar    1  UNL1        0.0000
     48 H           0.3789    3.6914    3.8664 H       1  UNL1        0.0000
     49 C          -0.0667    5.5958    3.0009 C.ar    1  UNL1        0.0000
     50 C          -1.1277   10.5498    0.8169 C.2     1  UNL1        0.0000
     51 H          -1.3685    9.6760    0.2351 H       1  UNL1        0.0000
     52 C           0.9017    5.2861    5.1861 C.ar    1  UNL1        0.0000
     53 H           1.2565    4.6217    5.9626 H       1  UNL1        0.0000
     54 C          -0.6125    5.0144    1.7367 C.3     1  UNL1        0.0000
     55 H          -1.6538    5.3037    1.6072 H       1  UNL1        0.0000
     56 H          -0.5394    3.9287    1.7475 H       1  UNL1        0.0000
     57 H          -0.0724    5.4059    0.8772 H       1  UNL1        0.0000
     58 C           3.3765   10.1703    7.3463 C.ar    1  UNL1        0.0000
     59 C           3.7827    8.5425    0.5912 C.3     1  UNL1        0.0000
     60 H           3.2443    7.5980    0.5616 H       1  UNL1        0.0000
     61 H           4.7410    8.4202    0.0924 H       1  UNL1        0.0000
     62 H           3.1965    9.2855    0.0553 H       1  UNL1        0.0000
     63 C           4.0861    9.1796    8.0285 C.ar    1  UNL1        0.0000
     64 C          -1.3432   11.8242    0.2989 C.2     1  UNL1        0.0000
     65 H          -1.7571   11.9134   -0.6954 H       1  UNL1        0.0000
     66 C           3.4814   11.5027    7.7271 C.ar    1  UNL1        0.0000
     67 H           2.9477   12.2603    7.1714 H       1  UNL1        0.0000
     68 C           4.9556   10.8809    9.5061 C.ar    1  UNL1        0.0000
     69 H           5.5703   11.1512   10.3518 H       1  UNL1        0.0000
     70 C           4.8661    9.5569    9.1140 C.ar    1  UNL1        0.0000
     71 H           5.4150    8.7991    9.6544 H       1  UNL1        0.0000
     72 C           4.7741    7.9243    2.8261 C.3     1  UNL1        0.0000
     73 H           4.8856    8.2460    3.8581 H       1  UNL1        0.0000
     74 H           5.7583    7.7860    2.3853 H       1  UNL1        0.0000
     75 H           4.2413    6.9761    2.8127 H       1  UNL1        0.0000
     76 C           3.9751    7.7432    7.6214 C.3     1  UNL1        0.0000
     77 H           3.0669    7.3060    8.0405 H       1  UNL1        0.0000
     78 H           4.8248    7.1720    7.9875 H       1  UNL1        0.0000
     79 H           3.9234    7.6487    6.5387 H       1  UNL1        0.0000
     80 C           4.2658   11.8582    8.8094 C.ar    1  UNL1        0.0000
     81 H           4.3409   12.8941    9.1036 H       1  UNL1        0.0000
@<TRIPOS>BOND
     1    65    64    1
     2    62    59    1
     3    61    59    1
     4    51    50    1
     5    64    50    2
     6    64    39    1
     7    60    59    1
     8    59    36    1
     9    40    39    1
    10    50    15    1
    11    57    54    1
    12    39    31    1
    13     6    25    2
    14    44    43    1
    15    55    54    1
    16    45    43    1
    17    54    56    1
    18    54    49    1
    19    36    43    1
    20    36     7    1
    21    36    72    1
    22    15     4    1
    23    15    11    2
    24    43    46    1
    25    25     4   am
    26    25    30    1
    27    31    11    1
    28    31    41    2
    29    74    72    1
    30     7    18    2
    31    42    41    1
    32     4     1    1
    33    75    72    1
    34    72    73    1
    35    11     3    1
    36    49    30   ar
    37    49    47   ar
    38    41    32    1
    39    30    19   ar
    40    18     1    1
    41    48    47    1
    42    27    26    1
    43    47    52   ar
    44     3     1    1
    45     3    20    1
    46    32    20    2
    47    32    33    1
    48    19     1    1
    49    19    37   ar
    50     1     5    1
    51     1     8    1
    52    20    21    1
    53    26     5    1
    54    26    28    2
    55     2    22    2
    56    52    37   ar
    57    52    53    1
    58    37    38    1
    59    29    28    1
    60     5     9    1
    61    28    16    1
    62     8    22   am
    63     8    12    1
    64    22    58    1
    65    79    76    1
    66     9    12    1
    67     9    10    1
    68    12    34    2
    69    16    10    2
    70    16    17    1
    71    67    66    1
    72    58    66   ar
    73    58    63   ar
    74    76    78    1
    75    76    63    1
    76    76    77    1
    77    10    13    1
    78    66    80   ar
    79    63    70   ar
    80    34    35    1
    81    34    23    1
    82    80    81    1
    83    80    68   ar
    84    13    23    2
    85    13    14    1
    86    70    68   ar
    87    70    71    1
    88    23    24    1
    89    68    69    1
