@<TRIPOS>MOLECULE
CSD_code = ZAZROK | q = 0 | S = 0 | Stoichiometry = C35H29CoN4O3 | MND = 6
 72 79 0 0 0
SMALL
GASTEIGER

@<TRIPOS>ATOM
      1 CO          0.6411   11.0469   10.9698 Co.oh   1  UNL1        0.0000
      2 O           1.4009   10.4424    9.2002 O.3     1  UNL1        0.0000
      3 H           0.9215    9.5487    9.1044 H       1  UNL1        0.0000
      4 O           0.0226    8.3089    9.3312 O.2     1  UNL1        0.0000
      5 N          -0.9283   11.7629    9.8737 N.pl3   1  UNL1        0.0000
      6 N           1.3845   12.7210   10.6291 N.am    1  UNL1        0.0000
      7 N          -0.0775   11.5437   12.5893 N.pl3   1  UNL1        0.0000
      8 N          -0.1483    9.2751   11.3623 N.am    1  UNL1        0.0000
      9 O           3.2200   14.0683   10.9483 O.2     1  UNL1        0.0000
     10 C          -0.6239   13.0090    9.4445 C.2     1  UNL1        0.0000
     11 C           2.2905   10.7246   11.8788 C.ar    1  UNL1        0.0000
     12 C          -0.5172   10.4917   13.3281 C.3     1  UNL1        0.0000
     13 C          -0.5084    9.2219   12.6893 C.2     1  UNL1        0.0000
     14 C          -0.9415   10.6267   14.6721 C.2     1  UNL1        0.0000
     15 C          -0.1271   12.7491   13.1291 C.2     1  UNL1        0.0000
     16 H           0.2188   13.5814   12.5348 H       1  UNL1        0.0000
     17 C           3.1551   11.8261   11.8343 C.ar    1  UNL1        0.0000
     18 C           0.6346   13.5507    9.8480 C.2     1  UNL1        0.0000
     19 C          -0.5829   12.9799   14.4309 C.2     1  UNL1        0.0000
     20 H          -0.5980   13.9915   14.8046 H       1  UNL1        0.0000
     21 C          -0.9714   11.9271   15.2156 C.2     1  UNL1        0.0000
     22 H          -1.2902   12.0716   16.2369 H       1  UNL1        0.0000
     23 C          -1.2808    9.4660   15.3910 C.2     1  UNL1        0.0000
     24 H          -1.6071    9.5597   16.4152 H       1  UNL1        0.0000
     25 C          -2.0610   11.2193    9.4928 C.2     1  UNL1        0.0000
     26 H          -2.2646   10.2149    9.8349 H       1  UNL1        0.0000
     27 C          -0.4533    8.3179   10.4815 C.2     1  UNL1        0.0000
     28 C          -1.5004   13.7581    8.6158 C.2     1  UNL1        0.0000
     29 C           2.6309   13.0071   11.1033 C.2     1  UNL1        0.0000
     30 C          -0.7718    8.1006   13.4626 C.2     1  UNL1        0.0000
     31 H          -0.6778    7.1108   13.0477 H       1  UNL1        0.0000
     32 C           2.7075    9.5684   12.5155 C.ar    1  UNL1        0.0000
     33 H           2.0720    8.6963   12.5711 H       1  UNL1        0.0000
     34 C          -2.9866   11.8758    8.6717 C.2     1  UNL1        0.0000
     35 H          -3.8988   11.3708    8.3940 H       1  UNL1        0.0000
     36 C          -2.7124   13.1451    8.2388 C.2     1  UNL1        0.0000
     37 H          -3.4044   13.6841    7.6075 H       1  UNL1        0.0000
     38 C           4.4265   11.7795   12.4185 C.ar    1  UNL1        0.0000
     39 C           0.9677   14.8294    9.4185 C.2     1  UNL1        0.0000
     40 H           1.9148   15.2520    9.7092 H       1  UNL1        0.0000
     41 C           0.0927   15.5570    8.6135 C.2     1  UNL1        0.0000
     42 H           0.3865   16.5481    8.2991 H       1  UNL1        0.0000
     43 C          -1.1595    8.2363   14.7962 C.2     1  UNL1        0.0000
     44 H          -1.3734    7.3425   15.3633 H       1  UNL1        0.0000
     45 C          -1.1179   15.0491    8.2119 C.3     1  UNL1        0.0000
     46 H          -1.7831   15.6215    7.5830 H       1  UNL1        0.0000
     47 C           3.9665    9.5127   13.0972 C.ar    1  UNL1        0.0000
     48 H           4.2852    8.6051   13.5912 H       1  UNL1        0.0000
     49 C           4.8117   10.6045   13.0505 C.ar    1  UNL1        0.0000
     50 H           5.7883   10.5447   13.5102 H       1  UNL1        0.0000
     51 C           2.7509   10.2723    8.8233 C.3     1  UNL1        0.0000
     52 H           2.7938    9.9649    7.7738 H       1  UNL1        0.0000
     53 H           3.2583    9.5251    9.4405 H       1  UNL1        0.0000
     54 H           3.2649   11.2271    8.9353 H       1  UNL1        0.0000
     55 C           5.3553   12.9491   12.3707 C.3     1  UNL1        0.0000
     56 H           5.5583   13.2293   11.3389 H       1  UNL1        0.0000
     57 H           6.2924   12.7175   12.8726 H       1  UNL1        0.0000
     58 H           4.8971   13.8154   12.8437 H       1  UNL1        0.0000
     59 C          -1.4717    7.2679   10.8143 C.ar    1  UNL1        0.0000
     60 C          -2.7569    7.6558   11.1762 C.ar    1  UNL1        0.0000
     61 H          -2.9863    8.7058   11.2962 H       1  UNL1        0.0000
     62 C          -2.1649    4.9769   10.8948 C.ar    1  UNL1        0.0000
     63 H          -1.9361    3.9259   10.7893 H       1  UNL1        0.0000
     64 C          -1.1655    5.9120   10.6623 C.ar    1  UNL1        0.0000
     65 C          -3.4430    5.3664   11.2544 C.ar    1  UNL1        0.0000
     66 H          -4.2052    4.6207   11.4260 H       1  UNL1        0.0000
     67 C          -3.7413    6.7105   11.3953 C.ar    1  UNL1        0.0000
     68 H          -4.7363    7.0227   11.6752 H       1  UNL1        0.0000
     69 C           0.2185    5.4786   10.2892 C.3     1  UNL1        0.0000
     70 H           0.4993    5.9167    9.3331 H       1  UNL1        0.0000
     71 H           0.2788    4.3954   10.2164 H       1  UNL1        0.0000
     72 H           0.9410    5.8218   11.0307 H       1  UNL1        0.0000
@<TRIPOS>BOND
     1    46    45    1
     2    37    36    1
     3    52    51    1
     4    45    41    1
     5    45    28    1
     6    36    28    2
     7    36    34    1
     8    42    41    1
     9    35    34    1
    10    41    39    2
    11    28    10    1
    12    34    25    2
    13    51    54    1
    14    51     2    1
    15    51    53    1
    16     3     2    1
    17     4    27    2
    18    70    69    1
    19    39    40    1
    20    39    18    1
    21    10    18    2
    22    10     5    1
    23    25    26    1
    24    25     5    1
    25    18     6    1
    26     5     1    1
    27    71    69    1
    28    69    64    1
    29    69    72    1
    30    27    59    1
    31    27     8   am
    32     6     1    1
    33     6    29   am
    34    64    59   ar
    35    64    62   ar
    36    63    62    1
    37    59    60   ar
    38    62    65   ar
    39     9    29    2
    40     1     8    1
    41     1    11    1
    42     1     7    1
    43    29    17    1
    44    60    61    1
    45    60    67   ar
    46    65    67   ar
    47    65    66    1
    48    56    55    1
    49     8    13    1
    50    67    68    1
    51    17    11   ar
    52    17    38   ar
    53    11    32   ar
    54    55    38    1
    55    55    58    1
    56    55    57    1
    57    38    49   ar
    58    32    33    1
    59    32    47   ar
    60    16    15    1
    61     7    15    1
    62     7    12    1
    63    13    12    1
    64    13    30    2
    65    31    30    1
    66    49    47   ar
    67    49    50    1
    68    47    48    1
    69    15    19    2
    70    12    14    1
    71    30    43    1
    72    19    20    1
    73    19    21    1
    74    14    21    2
    75    14    23    1
    76    43    44    1
    77    43    23    2
    78    21    22    1
    79    23    24    1
