@<TRIPOS>MOLECULE
CSD_code = ABASEE | q = 0 | S = 0 | Stoichiometry = C13H19CoN12O | MND = 6
 46 49 0 0 0
SMALL
GASTEIGER

@<TRIPOS>ATOM
      1 CO          2.0327   10.3106    3.0434 Co.oh   1  UNL1        0.0000
      2 O          -2.3024   10.0697    5.3404 O.3     1  UNL1        0.0000
      3 N           3.6403   10.5978    2.1261 N.pl3   1  UNL1        0.0000
      4 N           2.2175    8.5902    2.4685 N.3     1  UNL1        0.0000
      5 N           0.2628    9.6071    4.0301 N.4     1  UNL1        0.0000
      6 N           1.7748   12.0035    3.7159 N.2     1  UNL1        0.0000
      7 N           2.4383   12.8185    4.2339 N.2     1  UNL1        0.0000
      8 N           2.9684   13.6916    4.7269 N.2     1  UNL1        0.0000
      9 N           2.9993    9.8426    4.6162 N.2     1  UNL1        0.0000
     10 N           4.0246    9.2819    4.6783 N.2     1  UNL1        0.0000
     11 N           5.0005    8.7182    4.8254 N.2     1  UNL1        0.0000
     12 N           1.0410   10.7749    1.5108 N.2     1  UNL1        0.0000
     13 N           1.3244   11.4718    0.6130 N.2     1  UNL1        0.0000
     14 N           1.4947   12.0912   -0.3225 N.2     1  UNL1        0.0000
     15 C           4.3009   11.7340    1.9159 C.3     1  UNL1        0.0000
     16 H           3.8497   12.6462    2.2777 H       1  UNL1        0.0000
     17 C           5.5212   11.7797    1.2686 C.2     1  UNL1        0.0000
     18 H           6.0143   12.7278    1.1335 H       1  UNL1        0.0000
     19 C           6.0912   10.5971    0.8132 C.2     1  UNL1        0.0000
     20 H           7.0497   10.6012    0.3184 H       1  UNL1        0.0000
     21 C           5.4022    9.4172    1.0004 C.2     1  UNL1        0.0000
     22 H           5.8063    8.4804    0.6541 H       1  UNL1        0.0000
     23 C           4.1684    9.4397    1.6512 C.2     1  UNL1        0.0000
     24 C           3.3255    8.2842    1.8746 C.3     1  UNL1        0.0000
     25 C           3.7676    6.9275    1.4316 C.3     1  UNL1        0.0000
     26 H           3.0002    6.1759    1.5863 H       1  UNL1        0.0000
     27 H           4.6597    6.6392    1.9876 H       1  UNL1        0.0000
     28 H           4.0161    6.9484    0.3718 H       1  UNL1        0.0000
     29 C           1.1666    7.6674    2.7973 C.3     1  UNL1        0.0000
     30 H           1.5271    6.6428    2.9395 H       1  UNL1        0.0000
     31 H           0.4420    7.6748    1.9740 H       1  UNL1        0.0000
     32 C           0.5090    8.1561    4.0903 C.3     1  UNL1        0.0000
     33 H          -0.4076    7.5853    4.2697 H       1  UNL1        0.0000
     34 H           1.2005    7.9730    4.9165 H       1  UNL1        0.0000
     35 C          -0.9733    9.9333    3.2970 C.3     1  UNL1        0.0000
     36 H          -0.9552    9.4654    2.3137 H       1  UNL1        0.0000
     37 H          -0.9822   11.0152    3.1562 H       1  UNL1        0.0000
     38 C          -2.2467    9.5203    4.0467 C.3     1  UNL1        0.0000
     39 H          -3.1187    9.9062    3.5157 H       1  UNL1        0.0000
     40 H          -2.3363    8.4230    4.1031 H       1  UNL1        0.0000
     41 C          -1.1574    9.7214    6.0841 C.3     1  UNL1        0.0000
     42 H          -1.1399    8.6353    6.2661 H       1  UNL1        0.0000
     43 H          -1.2530   10.2332    7.0430 H       1  UNL1        0.0000
     44 C           0.1208   10.1817    5.3802 C.3     1  UNL1        0.0000
     45 H           0.0830   11.2668    5.2653 H       1  UNL1        0.0000
     46 H           0.9992    9.9306    5.9745 H       1  UNL1        0.0000
@<TRIPOS>BOND
     1    14    13    2
     2    20    19    1
     3    28    25    1
     4    13    12    2
     5    22    21    1
     6    19    21    1
     7    19    17    2
     8    21    23    2
     9    18    17    1
    10    17    15    1
    11    25    26    1
    12    25    24    1
    13    25    27    1
    14    12     1    1
    15    23    24    1
    16    23     3    1
    17    24     4    1
    18    15     3    1
    19    15    16    1
    20    31    29    1
    21     3     1    1
    22    36    35    1
    23     4    29    1
    24     4     1    1
    25    29    30    1
    26    29    32    1
    27     1     6    1
    28     1     5    1
    29     1     9    1
    30    37    35    1
    31    35     5    1
    32    35    38    1
    33    39    38    1
    34     6     7    2
    35     5    32    1
    36     5    44    1
    37    38    40    1
    38    38     2    1
    39    32    33    1
    40    32    34    1
    41     7     8    2
    42     9    10    2
    43    10    11    2
    44    45    44    1
    45     2    41    1
    46    44    46    1
    47    44    41    1
    48    41    42    1
    49    41    43    1
