@<TRIPOS>MOLECULE
CSD_code = ADUXAB | q = 1 | S = 0 | Stoichiometry = C50H54CoN6(1+) | MND = 5
 111 119 0 0 0
SMALL
GASTEIGER

@<TRIPOS>ATOM
      1 CO          4.5198    1.4059    4.5023 Co.oh   1  UNL1        0.0000
      2 N           5.8889    0.8782    3.0850 N.pl3   1  UNL1        0.0000
      3 N           4.9167    0.0473    5.7838 N.pl3   1  UNL1        0.0000
      4 N           3.4365    2.4610    5.6877 N.pl3   1  UNL1        0.0000
      5 N           4.6739    2.9589    3.6496 N.pl3   1  UNL1        0.0000
      6 C           5.3732    0.1993    7.1040 C.ar    1  UNL1        0.0000
      7 N           3.3546   -0.1826    3.6996 N.pl3   1  UNL1        0.0000
      8 C           3.2453    3.6827    5.2698 C.2     1  UNL1        0.0000
      9 H           2.5981    4.3763    5.7946 H       1  UNL1        0.0000
     10 C           3.9767    4.0385    4.1042 C.2     1  UNL1        0.0000
     11 C           5.5267    3.1094    2.6012 C.2     1  UNL1        0.0000
     12 C           6.1377    1.8671    2.2747 C.3     1  UNL1        0.0000
     13 H           6.7444    1.7449    1.3839 H       1  UNL1        0.0000
     14 C           6.2074   -0.4252    2.6585 C.ar    1  UNL1        0.0000
     15 C           5.6107   -0.9423    1.4940 C.ar    1  UNL1        0.0000
     16 C           5.7782   -2.2860    1.1960 C.ar    1  UNL1        0.0000
     17 H           5.2975   -2.6824    0.3135 H       1  UNL1        0.0000
     18 C           6.5517   -3.1262    1.9823 C.ar    1  UNL1        0.0000
     19 C           6.7148   -4.5725    1.6404 C.3     1  UNL1        0.0000
     20 H           6.7929   -5.1779    2.5410 H       1  UNL1        0.0000
     21 H           5.8808   -4.9288    1.0411 H       1  UNL1        0.0000
     22 H           7.6296   -4.7160    1.0646 H       1  UNL1        0.0000
     23 C           7.2220   -2.5699    3.0624 C.ar    1  UNL1        0.0000
     24 H           7.8902   -3.1878    3.6446 H       1  UNL1        0.0000
     25 C           7.0747   -1.2370    3.4067 C.ar    1  UNL1        0.0000
     26 C           7.9247   -0.6654    4.4993 C.3     1  UNL1        0.0000
     27 H           8.2360    0.3444    4.2443 H       1  UNL1        0.0000
     28 H           7.3932   -0.6327    5.4470 H       1  UNL1        0.0000
     29 H           8.8120   -1.2789    4.6350 H       1  UNL1        0.0000
     30 C           4.8021   -0.1085    0.5431 C.3     1  UNL1        0.0000
     31 H           4.3523    0.7562    1.0256 H       1  UNL1        0.0000
     32 H           5.4408    0.2499   -0.2655 H       1  UNL1        0.0000
     33 H           4.0116   -0.7062    0.0950 H       1  UNL1        0.0000
     34 C           5.6817    4.3370    1.9640 C.2     1  UNL1        0.0000
     35 H           6.3666    4.4268    1.1364 H       1  UNL1        0.0000
     36 C           4.9466    5.4274    2.4072 C.2     1  UNL1        0.0000
     37 H           5.0484    6.3844    1.9215 H       1  UNL1        0.0000
     38 C           4.0850    5.2801    3.4864 C.2     1  UNL1        0.0000
     39 H           3.5110    6.1136    3.8585 H       1  UNL1        0.0000
     40 C           2.8684    2.1087    6.9335 C.ar    1  UNL1        0.0000
     41 C           1.7834    1.2307    7.0134 C.ar    1  UNL1        0.0000
     42 C           1.3075    0.8586    8.2617 C.ar    1  UNL1        0.0000
     43 H           0.4647    0.1842    8.3139 H       1  UNL1        0.0000
     44 C           1.8772    1.3317    9.4330 C.ar    1  UNL1        0.0000
     45 C           2.9121    2.2494    9.3304 C.ar    1  UNL1        0.0000
     46 H           3.3418    2.6644   10.2301 H       1  UNL1        0.0000
     47 C           3.4026    2.6676    8.1047 C.ar    1  UNL1        0.0000
     48 C           4.4636    3.7273    8.0781 C.3     1  UNL1        0.0000
     49 H           4.0023    4.7100    8.1846 H       1  UNL1        0.0000
     50 H           5.1474    3.5912    8.9119 H       1  UNL1        0.0000
     51 H           5.0293    3.7174    7.1517 H       1  UNL1        0.0000
     52 C           1.3660    0.9071   10.7736 C.3     1  UNL1        0.0000
     53 H           0.7922   -0.0132   10.7010 H       1  UNL1        0.0000
     54 H           2.1889    0.7608   11.4697 H       1  UNL1        0.0000
     55 H           0.7162    1.6787   11.1862 H       1  UNL1        0.0000
     56 C           1.0861    0.7170    5.7887 C.3     1  UNL1        0.0000
     57 H           1.2472    1.3689    4.9348 H       1  UNL1        0.0000
     58 H           1.4414   -0.2800    5.5282 H       1  UNL1        0.0000
     59 H           0.0166    0.6463    5.9751 H       1  UNL1        0.0000
     60 C           4.7567   -0.5389    8.1384 C.ar    1  UNL1        0.0000
     61 C           5.1626   -0.3378    9.4487 C.ar    1  UNL1        0.0000
     62 H           4.6698   -0.8989   10.2290 H       1  UNL1        0.0000
     63 C           6.1749    0.5442    9.7866 C.ar    1  UNL1        0.0000
     64 C           6.7676    1.2645    8.7604 C.ar    1  UNL1        0.0000
     65 H           7.5581    1.9630    8.9947 H       1  UNL1        0.0000
     66 C           6.3791    1.1255    7.4386 C.ar    1  UNL1        0.0000
     67 C           7.1087    1.9619    6.4298 C.3     1  UNL1        0.0000
     68 H           7.2136    2.9797    6.8001 H       1  UNL1        0.0000
     69 H           8.1137    1.5705    6.2782 H       1  UNL1        0.0000
     70 H           6.5908    1.9840    5.4698 H       1  UNL1        0.0000
     71 C           6.6069    0.7363   11.2043 C.3     1  UNL1        0.0000
     72 H           6.3484    1.7389   11.5442 H       1  UNL1        0.0000
     73 H           6.1279    0.0152   11.8606 H       1  UNL1        0.0000
     74 H           7.6864    0.6285   11.2919 H       1  UNL1        0.0000
     75 C           3.6284   -1.5083    7.9336 C.3     1  UNL1        0.0000
     76 H           3.0748   -1.3192    7.0177 H       1  UNL1        0.0000
     77 H           3.9999   -2.5332    7.9070 H       1  UNL1        0.0000
     78 H           2.9377   -1.4328    8.7702 H       1  UNL1        0.0000
     79 C           4.7073   -1.1508    5.3399 C.2     1  UNL1        0.0000
     80 H           5.0827   -2.0319    5.8507 H       1  UNL1        0.0000
     81 C           3.8907   -1.3235    4.1704 C.2     1  UNL1        0.0000
     82 C           2.4743   -0.2449    2.6993 C.2     1  UNL1        0.0000
     83 C           2.1041   -1.4654    2.1250 C.2     1  UNL1        0.0000
     84 H           1.3739   -1.4549    1.3329 H       1  UNL1        0.0000
     85 C           2.6757   -2.6371    2.5863 C.2     1  UNL1        0.0000
     86 H           2.4108   -3.5870    2.1485 H       1  UNL1        0.0000
     87 C           3.5840   -2.5727    3.6288 C.2     1  UNL1        0.0000
     88 H           4.0496   -3.4596    4.0262 H       1  UNL1        0.0000
     89 C           1.8840    1.0037    2.2432 C.2     1  UNL1        0.0000
     90 H           2.2739    1.9065    2.7306 H       1  UNL1        0.0000
     91 N           0.9458    0.9825    1.3910 N.2     1  UNL1        0.0000
     92 C           0.2907    2.0602    0.8545 C.ar    1  UNL1        0.0000
     93 C           0.9091    3.2480    0.4237 C.ar    1  UNL1        0.0000
     94 C           0.1299    4.2242   -0.1777 C.ar    1  UNL1        0.0000
     95 H           0.6110    5.1277   -0.5255 H       1  UNL1        0.0000
     96 C          -1.2390    4.0790   -0.3463 C.ar    1  UNL1        0.0000
     97 C          -1.8335    2.8927    0.0727 C.ar    1  UNL1        0.0000
     98 H          -2.8962    2.7572   -0.0664 H       1  UNL1        0.0000
     99 C          -1.0937    1.8792    0.6457 C.ar    1  UNL1        0.0000
    100 C          -1.7455    0.6140    1.1061 C.3     1  UNL1        0.0000
    101 H          -1.8686    0.6235    2.1893 H       1  UNL1        0.0000
    102 H          -2.7244    0.4976    0.6496 H       1  UNL1        0.0000
    103 H          -1.1206   -0.2398    0.8545 H       1  UNL1        0.0000
    104 C          -2.0656    5.1589   -0.9673 C.3     1  UNL1        0.0000
    105 H          -2.7240    5.6022   -0.2198 H       1  UNL1        0.0000
    106 H          -1.4391    5.9436   -1.3836 H       1  UNL1        0.0000
    107 H          -2.6931    4.7516   -1.7583 H       1  UNL1        0.0000
    108 C           2.3910    3.4679    0.5183 C.3     1  UNL1        0.0000
    109 H           2.7254    4.1055   -0.2975 H       1  UNL1        0.0000
    110 H           2.6460    3.9662    1.4543 H       1  UNL1        0.0000
    111 H           2.9368    2.5272    0.4672 H       1  UNL1        0.0000
@<TRIPOS>BOND
     1   107   104    1
     2   106   104    1
     3   104    96    1
     4   104   105    1
     5    95    94    1
     6    96    94   ar
     7    96    97   ar
     8   109   108    1
     9    32    30    1
    10    94    93   ar
    11    98    97    1
    12    97    99   ar
    13    33    30    1
    14    17    16    1
    15    93   108    1
    16    93    92   ar
    17   111   108    1
    18   108   110    1
    19    30    31    1
    20    30    15    1
    21    99    92   ar
    22    99   100    1
    23   102   100    1
    24   103   100    1
    25    92    91    1
    26    21    19    1
    27    22    19    1
    28   100   101    1
    29    35    34    1
    30    16    15   ar
    31    16    18   ar
    32    84    83    1
    33    13    12    1
    34    91    89    2
    35    15    14   ar
    36    19    18    1
    37    19    20    1
    38    37    36    1
    39    34    36    1
    40    34    11    2
    41    18    23   ar
    42    83    85    1
    43    83    82    2
    44    86    85    1
    45    89    82    1
    46    89    90    1
    47    12    11    1
    48    12     2    1
    49    36    38    2
    50    85    87    2
    51    11     5    1
    52    14     2    1
    53    14    25   ar
    54    82     7    1
    55    23    25   ar
    56    23    24    1
    57     2     1    1
    58    25    26    1
    59    38    39    1
    60    38    10    1
    61    87    88    1
    62    87    81    1
    63     5    10    1
    64     5     1    1
    65     7    81    1
    66     7     1    1
    67    10     8    2
    68    81    79    2
    69    27    26    1
    70    26    29    1
    71    26    28    1
    72     1     4    1
    73     1     3    1
    74    57    56    1
    75     8     4    1
    76     8     9    1
    77    79     3    1
    78    79    80    1
    79    70    67    1
    80    58    56    1
    81     4    40    1
    82     3     6    1
    83    56    59    1
    84    56    41    1
    85    69    67    1
    86    67    68    1
    87    67    66    1
    88    40    41   ar
    89    40    47   ar
    90    41    42   ar
    91    76    75    1
    92     6    66   ar
    93     6    60   ar
    94    51    48    1
    95    66    64   ar
    96    77    75    1
    97    75    60    1
    98    75    78    1
    99    48    47    1
   100    48    49    1
   101    48    50    1
   102    47    45   ar
   103    60    61   ar
   104    42    43    1
   105    42    44   ar
   106    64    65    1
   107    64    63   ar
   108    45    44   ar
   109    45    46    1
   110    44    52    1
   111    61    63   ar
   112    61    62    1
   113    63    71    1
   114    53    52    1
   115    52    55    1
   116    52    54    1
   117    71    74    1
   118    71    72    1
   119    71    73    1
