@<TRIPOS>MOLECULE
CSD_code = BIWDIV | q = -1 | S = 0 | Stoichiometry = C34H22CoN10O4(1-) | MND = 6
 71 80 0 0 0
SMALL
GASTEIGER

@<TRIPOS>ATOM
      1 CO         -0.9136    4.5155   16.2923 Co.oh   1  UNL1        0.0000
      2 O          -3.5059    2.2461   14.3228 O.2     1  UNL1        0.0000
      3 O           1.5678    7.0253   14.4433 O.2     1  UNL1        0.0000
      4 O           1.5483    1.9258   18.0191 O.2     1  UNL1        0.0000
      5 O          -3.2532    6.9659   18.3895 O.2     1  UNL1        0.0000
      6 N          -0.9170    4.5759   14.5294 N.pl3   1  UNL1        0.0000
      7 N          -2.3496    3.2608   16.0440 N.am    1  UNL1        0.0000
      8 N          -2.6054    2.3155   18.1430 N.ar    1  UNL1        0.0000
      9 N           0.4332    5.8939   16.1103 N.am    1  UNL1        0.0000
     10 N           1.2007    6.0067   18.2797 N.ar    1  UNL1        0.0000
     11 N          -0.9108    4.4005   18.0525 N.pl3   1  UNL1        0.0000
     12 N          -2.1837    5.9405   16.6141 N.am    1  UNL1        0.0000
     13 N          -2.9426    6.3041   14.4696 N.ar    1  UNL1        0.0000
     14 N           0.4524    3.1673   16.4109 N.am    1  UNL1        0.0000
     15 N           0.6674    2.4275   14.2268 N.ar    1  UNL1        0.0000
     16 C          -1.7376    3.7805   13.8597 C.3     1  UNL1        0.0000
     17 C          -1.7384    3.7560   12.4739 C.2     1  UNL1        0.0000
     18 H          -2.4258    3.1006   11.9624 H       1  UNL1        0.0000
     19 C          -0.8487    4.5762   11.7948 C.2     1  UNL1        0.0000
     20 H          -0.8206    4.5767   10.7140 H       1  UNL1        0.0000
     21 C           0.0042    5.3979   12.5145 C.2     1  UNL1        0.0000
     22 H           0.7140    6.0563   12.0377 H       1  UNL1        0.0000
     23 C          -0.0617    5.3671   13.9009 C.2     1  UNL1        0.0000
     24 C           0.7440    6.2041   14.8345 C.2     1  UNL1        0.0000
     25 C           0.9370    6.6540   17.1450 C.ar    1  UNL1        0.0000
     26 C           1.1099    8.0452   17.0403 C.ar    1  UNL1        0.0000
     27 H           0.8843    8.5447   16.1130 H       1  UNL1        0.0000
     28 C           1.5586    8.7410   18.1403 C.ar    1  UNL1        0.0000
     29 H           1.6888    9.8141   18.0885 H       1  UNL1        0.0000
     30 C           1.8318    8.0558   19.3191 C.ar    1  UNL1        0.0000
     31 H           2.1806    8.5714   20.2013 H       1  UNL1        0.0000
     32 C           1.6317    6.6877   19.3232 C.ar    1  UNL1        0.0000
     33 H           1.8214    6.0931   20.2098 H       1  UNL1        0.0000
     34 C          -3.1811    2.7628   17.0282 C.ar    1  UNL1        0.0000
     35 C          -4.5794    2.7694   16.8805 C.ar    1  UNL1        0.0000
     36 H          -5.0169    3.1476   15.9721 H       1  UNL1        0.0000
     37 C          -5.3583    2.3002   17.9137 C.ar    1  UNL1        0.0000
     38 H          -6.4371    2.3048   17.8285 H       1  UNL1        0.0000
     39 C          -4.7469    1.8332   19.0723 C.ar    1  UNL1        0.0000
     40 H          -5.3269    1.4607   19.9036 H       1  UNL1        0.0000
     41 C          -3.3660    1.8697   19.1241 C.ar    1  UNL1        0.0000
     42 H          -2.8262    1.5230   19.9985 H       1  UNL1        0.0000
     43 C          -2.6456    3.0054   14.7524 C.2     1  UNL1        0.0000
     44 C          -0.1378    3.4979   18.6375 C.3     1  UNL1        0.0000
     45 C          -0.1425    3.3354   20.0139 C.2     1  UNL1        0.0000
     46 H           0.5048    2.5944   20.4559 H       1  UNL1        0.0000
     47 C          -0.9863    4.1330   20.7737 C.2     1  UNL1        0.0000
     48 H          -1.0175    4.0276   21.8493 H       1  UNL1        0.0000
     49 C          -1.7890    5.0696   20.1419 C.2     1  UNL1        0.0000
     50 H          -2.4609    5.7172   20.6838 H       1  UNL1        0.0000
     51 C          -1.7217    5.1725   18.7590 C.2     1  UNL1        0.0000
     52 C          -2.4771    6.1416   17.9156 C.2     1  UNL1        0.0000
     53 C          -2.6463    6.8233   15.6606 C.ar    1  UNL1        0.0000
     54 C          -2.7460    8.2049   15.9006 C.ar    1  UNL1        0.0000
     55 H          -2.4932    8.5998   16.8704 H       1  UNL1        0.0000
     56 C          -3.1584    9.0266   14.8758 C.ar    1  UNL1        0.0000
     57 H          -3.2324   10.0948   15.0321 H       1  UNL1        0.0000
     58 C          -3.4663    8.4746   13.6373 C.ar    1  UNL1        0.0000
     59 H          -3.7898    9.0908   12.8118 H       1  UNL1        0.0000
     60 C          -3.3367    7.1049   13.4991 C.ar    1  UNL1        0.0000
     61 H          -3.5593    6.6094   12.5605 H       1  UNL1        0.0000
     62 C           1.2612    2.7303   15.3801 C.ar    1  UNL1        0.0000
     63 C           2.6576    2.6529   15.5248 C.ar    1  UNL1        0.0000
     64 H           3.1103    2.9147   16.4662 H       1  UNL1        0.0000
     65 C           3.4156    2.2528   14.4478 C.ar    1  UNL1        0.0000
     66 H           4.4930    2.1953   14.5308 H       1  UNL1        0.0000
     67 C           2.7852    1.9362   13.2492 C.ar    1  UNL1        0.0000
     68 H           3.3486    1.6224   12.3830 H       1  UNL1        0.0000
     69 C           1.4081    2.0465   13.2040 C.ar    1  UNL1        0.0000
     70 H           0.8545    1.8177   12.2999 H       1  UNL1        0.0000
     71 C           0.7299    2.7680   17.6696 C.2     1  UNL1        0.0000
@<TRIPOS>BOND
     1    20    19    1
     2    19    17    2
     3    19    21    1
     4    18    17    1
     5    22    21    1
     6    70    69    1
     7    68    67    1
     8    17    16    1
     9    21    23    2
    10    61    60    1
    11    59    58    1
    12    69    67   ar
    13    69    15   ar
    14    67    65   ar
    15    60    58   ar
    16    60    13   ar
    17    58    56   ar
    18    16     6    1
    19    16    43    1
    20    23     6    1
    21    23    24    1
    22    15    62   ar
    23     2    43    2
    24     3    24    2
    25    65    66    1
    26    65    63   ar
    27    13    53   ar
    28     6     1    1
    29    43     7   am
    30    24     9   am
    31    56    57    1
    32    56    54   ar
    33    62    63   ar
    34    62    14    1
    35    63    64    1
    36    53    54   ar
    37    53    12    1
    38    54    55    1
    39    36    35    1
    40     7     1    1
    41     7    34    1
    42     9     1    1
    43     9    25    1
    44    27    26    1
    45     1    14    1
    46     1    12    1
    47     1    11    1
    48    14    71   am
    49    12    52   am
    50    35    34   ar
    51    35    37   ar
    52    34     8   ar
    53    26    25   ar
    54    26    28   ar
    55    25    10   ar
    56    71     4    2
    57    71    44    1
    58    38    37    1
    59    37    39   ar
    60    52     5    2
    61    52    51    1
    62    11    44    1
    63    11    51    1
    64    29    28    1
    65    28    30   ar
    66     8    41   ar
    67    10    32   ar
    68    44    45    1
    69    51    49    2
    70    39    41   ar
    71    39    40    1
    72    41    42    1
    73    30    32   ar
    74    30    31    1
    75    32    33    1
    76    45    46    1
    77    45    47    2
    78    49    50    1
    79    49    47    1
    80    47    48    1
