@<TRIPOS>MOLECULE
CSD_code = CEBHUP | q = 1 | S = 0 | Stoichiometry = C28H20CoN10(1+) | MND = 6
 59 68 0 0 0
SMALL
GASTEIGER

@<TRIPOS>ATOM
      1 CO          9.4645    3.5127    4.3833 Co.oh   1  UNL1        0.0000
      2 N           8.3439    4.8982    3.5965 N.pl3   1  UNL1        0.0000
      3 N           7.9242    2.5233    4.3359 N.3     1  UNL1        0.0000
      4 N           7.9593    1.3021    4.7950 N.pl3   1  UNL1        0.5000
      5 N          10.1387    1.9399    5.1373 N.pl3   1  UNL1        0.5000
      6 N          11.3724    1.7540    5.5416 N.pl3   1  UNL1        0.0000
      7 N          10.1762    3.0147    2.6405 N.pl3   1  UNL1        0.0000
      8 N          11.0181    4.4727    4.5188 N.3     1  UNL1        0.0000
      9 N          11.2336    5.1490    5.6140 N.pl3   1  UNL1        0.5000
     10 N           9.1875    4.2221    6.0908 N.pl3   1  UNL1        0.5000
     11 N           8.1417    3.9991    6.8501 N.pl3   1  UNL1        0.0000
     12 C           8.6373    6.1424    3.2362 C.3     1  UNL1        0.0000
     13 H           9.6611    6.4638    3.3740 H       1  UNL1        0.0000
     14 C           7.6986    7.0114    2.7098 C.2     1  UNL1        0.0000
     15 H           7.9874    8.0120    2.4346 H       1  UNL1        0.0000
     16 C           6.3893    6.5694    2.5496 C.2     1  UNL1        0.0000
     17 H           5.6360    7.2261    2.1434 H       1  UNL1        0.0000
     18 C           6.0721    5.2800    2.9205 C.2     1  UNL1        0.0000
     19 H           5.0707    4.8949    2.8169 H       1  UNL1        0.0000
     20 C           7.0704    4.4535    3.4476 C.2     1  UNL1        0.0000
     21 C           6.8590    3.1071    3.8749 C.3     1  UNL1        0.0000
     22 H           5.8962    2.6174    3.8398 H       1  UNL1        0.0000
     23 C           9.1776    0.9976    5.2441 C.2     1  UNL1        0.0000
     24 C           9.4941   -0.2685    5.8321 C.ar    1  UNL1        0.0000
     25 C           8.5499   -1.2906    5.9906 C.ar    1  UNL1        0.0000
     26 H           7.5417   -1.1196    5.6501 H       1  UNL1        0.0000
     27 C           8.9293   -2.4741    6.5760 C.ar    1  UNL1        0.0000
     28 H           8.2091   -3.2672    6.7046 H       1  UNL1        0.0000
     29 C          10.2458   -2.6652    7.0125 C.ar    1  UNL1        0.0000
     30 H          10.5201   -3.6033    7.4703 H       1  UNL1        0.0000
     31 C          11.1856   -1.6746    6.8657 C.ar    1  UNL1        0.0000
     32 H          12.2014   -1.8165    7.2018 H       1  UNL1        0.0000
     33 C          10.8257   -0.4559    6.2721 C.ar    1  UNL1        0.0000
     34 C          11.7277    0.6297    6.0813 C.2     1  UNL1        0.0000
     35 H          12.7605    0.5581    6.3871 H       1  UNL1        0.0000
     36 C           9.6732    2.2258    1.6979 C.3     1  UNL1        0.0000
     37 H           8.7051    1.7844    1.8938 H       1  UNL1        0.0000
     38 C          10.3340    1.9592    0.5123 C.2     1  UNL1        0.0000
     39 H           9.8834    1.3101   -0.2198 H       1  UNL1        0.0000
     40 C          11.5795    2.5386    0.2924 C.2     1  UNL1        0.0000
     41 H          12.1181    2.3472   -0.6224 H       1  UNL1        0.0000
     42 C          12.1129    3.3585    1.2641 C.2     1  UNL1        0.0000
     43 H          13.0756    3.8268    1.1386 H       1  UNL1        0.0000
     44 C          11.3918    3.5846    2.4414 C.2     1  UNL1        0.0000
     45 C          11.8462    4.4033    3.5200 C.3     1  UNL1        0.0000
     46 H          12.8022    4.9073    3.5206 H       1  UNL1        0.0000
     47 C          10.2272    4.9930    6.4752 C.2     1  UNL1        0.0000
     48 C          10.2142    5.5982    7.7722 C.ar    1  UNL1        0.0000
     49 C          11.2599    6.3989    8.2486 C.ar    1  UNL1        0.0000
     50 H          12.1101    6.5722    7.6093 H       1  UNL1        0.0000
     51 C          11.1776    6.9347    9.5108 C.ar    1  UNL1        0.0000
     52 H          11.9786    7.5515    9.8881 H       1  UNL1        0.0000
     53 C          10.0620    6.6883   10.3202 C.ar    1  UNL1        0.0000
     54 H          10.0201    7.1197   11.3086 H       1  UNL1        0.0000
     55 C           9.0269    5.9057    9.8706 C.ar    1  UNL1        0.0000
     56 H           8.1654    5.7114   10.4910 H       1  UNL1        0.0000
     57 C           9.0849    5.3452    8.5862 C.ar    1  UNL1        0.0000
     58 C           8.0641    4.5185    8.0357 C.2     1  UNL1        0.0000
     59 H           7.1712    4.2856    8.5959 H       1  UNL1        0.0000
@<TRIPOS>BOND
     1    41    40    1
     2    39    38    1
     3    40    38    2
     4    40    42    1
     5    38    36    1
     6    43    42    1
     7    42    44    2
     8    36    37    1
     9    36     7    1
    10    17    16    1
    11    15    14    1
    12    44     7    1
    13    44    45    1
    14    16    14    2
    15    16    18    1
    16     7     1    1
    17    14    12    1
    18    19    18    1
    19    18    20    2
    20    12    13    1
    21    12     2    1
    22    20     2    1
    23    20    21    1
    24    45    46    1
    25    45     8    1
    26     2     1    1
    27    22    21    1
    28    21     3    1
    29     3     1    1
    30     3     4    1
    31     1     8    1
    32     1     5    1
    33     1    10    1
    34     8     9    1
    35     4    23    1
    36     5    23    1
    37     5     6    1
    38    23    24    2
    39     6    34    1
    40     9    47    1
    41    26    25    1
    42    24    25   ar
    43    24    33   ar
    44    25    27   ar
    45    34    33    2
    46    34    35    1
    47    10    47    1
    48    10    11    1
    49    33    31   ar
    50    47    48    2
    51    27    28    1
    52    27    29   ar
    53    11    58    1
    54    31    29   ar
    55    31    32    1
    56    29    30    1
    57    50    49    1
    58    48    49   ar
    59    48    57   ar
    60    58    57    2
    61    58    59    1
    62    49    51   ar
    63    57    55   ar
    64    51    52    1
    65    51    53   ar
    66    55    53   ar
    67    55    56    1
    68    53    54    1
