@<TRIPOS>MOLECULE
CSD_code = DOQSUZ | q = 0 | S = 0 | Stoichiometry = C6H17CoN6O6 | MND = 6
 36 37 0 0 0
SMALL
GASTEIGER

@<TRIPOS>ATOM
      1 CO          2.8680    5.4735   11.9896 Co.oh   1  UNL1        0.0000
      2 O           5.2974    5.8842   12.7695 O.2     1  UNL1        0.0000
      3 O           4.7394    6.8778   10.9427 O.2     1  UNL1        0.0000
      4 O           1.2598    7.5052   11.2489 O.2     1  UNL1        0.0000
      5 O           2.3813    7.9565   13.0300 O.2     1  UNL1        0.0000
      6 O           4.2996    3.5181   11.0043 O.2     1  UNL1        0.0000
      7 O           3.0922    2.9621   12.6983 O.2     1  UNL1        0.0000
      8 N           2.6852    5.5419    9.9232 N.4     1  UNL1        0.0000
      9 H           2.1774    6.4201    9.7674 H       1  UNL1        0.0000
     10 H           3.6268    5.6856    9.5521 H       1  UNL1        0.0000
     11 N           0.7918    4.6996   12.0063 N.4     1  UNL1        0.0000
     12 H           0.2867    5.5670   11.8029 H       1  UNL1        0.0000
     13 N           3.0153    5.5099   14.0447 N.4     1  UNL1        0.0000
     14 H           3.9667    5.2273   14.2918 H       1  UNL1        0.0000
     15 H           2.9586    6.5176   14.2447 H       1  UNL1        0.0000
     16 N           4.5153    6.1667   11.8929 N.pl3   1  UNL1        0.0000
     17 N           2.1094    7.2029   12.0951 N.pl3   1  UNL1        0.0000
     18 N           3.5100    3.7841   11.8979 N.pl3   1  UNL1        0.0000
     19 C           2.0354    4.5009    9.1244 C.3     1  UNL1        0.0000
     20 H           2.5815    3.5636    9.2547 H       1  UNL1        0.0000
     21 H           2.0731    4.7677    8.0608 H       1  UNL1        0.0000
     22 C           0.5802    4.3303    9.5407 C.3     1  UNL1        0.0000
     23 H           0.0744    5.2977    9.4865 H       1  UNL1        0.0000
     24 H           0.0922    3.6553    8.8370 H       1  UNL1        0.0000
     25 C           0.4242    3.7527   10.9424 C.3     1  UNL1        0.0000
     26 H           1.0392    2.8556   11.0500 H       1  UNL1        0.0000
     27 H          -0.6259    3.4527   11.0736 H       1  UNL1        0.0000
     28 C           0.2714    4.1833   13.2792 C.3     1  UNL1        0.0000
     29 H           0.6820    3.1802   13.4185 H       1  UNL1        0.0000
     30 H          -0.8233    4.0989   13.2166 H       1  UNL1        0.0000
     31 C           0.6361    5.0364   14.4896 C.3     1  UNL1        0.0000
     32 H           0.4742    6.0948   14.2746 H       1  UNL1        0.0000
     33 H          -0.0258    4.7590   15.3104 H       1  UNL1        0.0000
     34 C           2.0797    4.8112   14.9282 C.3     1  UNL1        0.0000
     35 H           2.2098    5.1631   15.9586 H       1  UNL1        0.0000
     36 H           2.3043    3.7431   14.8938 H       1  UNL1        0.0000
@<TRIPOS>BOND
     1    21    19    1
     2    24    22    1
     3    19    20    1
     4    19    22    1
     5    19     8    1
     6    23    22    1
     7    22    25    1
     8    10     8    1
     9     9     8    1
    10     8     1    1
    11    25    26    1
    12    25    27    1
    13    25    11    1
    14     3    16    2
    15     6    18    2
    16     4    17    2
    17    12    11    1
    18    16     1    1
    19    16     2    2
    20    18     1    1
    21    18     7    2
    22     1    11    1
    23     1    17    1
    24     1    13    1
    25    11    28    1
    26    17     5    2
    27    30    28    1
    28    28    29    1
    29    28    31    1
    30    13    15    1
    31    13    14    1
    32    13    34    1
    33    32    31    1
    34    31    34    1
    35    31    33    1
    36    36    34    1
    37    34    35    1
