@<TRIPOS>MOLECULE
CSD_code = FAGZUL | q = 0 | S = 0 | Stoichiometry = C18H13CoN16 | MND = 6
 48 57 0 0 0
SMALL
GASTEIGER

@<TRIPOS>ATOM
      1 CO          0.7390    9.3977    2.1624 Co.oh   1  UNL1        0.0000
      2 N           2.2926   10.3859    2.1183 N.pl3   1  UNL1        0.0000
      3 N           3.4141    9.7976    2.3626 N.2     1  UNL1        0.3300
      4 N           1.9404    7.9850    2.5348 N.pl3   1  UNL1        0.3300
      5 N           4.1001    7.5370    2.8154 N.pl3   1  UNL1        0.3300
      6 H           5.0929    7.6902    2.8564 H       1  UNL1        0.0000
      7 N          -0.0357   11.0720    1.7419 N.pl3   1  UNL1        0.3300
      8 N           2.2493   11.6472    1.9073 N.2     1  UNL1        0.3300
      9 N          -0.8099   13.0132    1.2182 N.3     1  UNL1        0.0000
     10 H          -1.4056   13.7830    0.9550 H       1  UNL1        0.0000
     11 N           0.5109   13.2081    1.3594 N.pl3   1  UNL1        0.3300
     12 N          -0.8496    8.4111    2.2219 N.pl3   1  UNL1        0.0000
     13 N           0.3556    9.6010    4.0473 N.pl3   1  UNL1        0.3300
     14 N           0.6466    8.8942    0.3763 N.pl3   1  UNL1        0.3300
     15 N          -1.0796    8.9689    5.6293 N.pl3   1  UNL1        0.3300
     16 H          -1.8716    8.5173    6.0517 H       1  UNL1        0.0000
     17 N          -1.3073    7.8958    1.1646 N.2     1  UNL1        0.3300
     18 C          -0.1023    9.7152    6.2555 C.ar    1  UNL1        0.0000
     19 N          -1.4646    8.2814    3.3699 N.2     1  UNL1        0.3300
     20 N          -0.5468    7.8451   -1.1630 N.2     1  UNL1        0.3300
     21 C           3.4262    6.3425    2.9539 C.ar    1  UNL1        0.0000
     22 C           0.9776   12.0214    1.6715 C.cat   1  UNL1        0.0000
     23 C           2.0551    6.6397    2.7736 C.ar    1  UNL1        0.0000
     24 C           3.1784    8.4907    2.5591 C.cat   1  UNL1        0.0000
     25 C           3.8613    5.0557    3.2166 C.ar    1  UNL1        0.0000
     26 H           4.9088    4.8356    3.3513 H       1  UNL1        0.0000
     27 C          -1.1310   11.7337    1.4438 C.3     1  UNL1        0.0000
     28 H          -2.1221   11.3287    1.3856 H       1  UNL1        0.0000
     29 C           1.5437    4.3539    3.1146 C.ar    1  UNL1        0.0000
     30 H           0.8261    3.5507    3.1796 H       1  UNL1        0.0000
     31 C           1.0989    5.6346    2.8537 C.ar    1  UNL1        0.0000
     32 H           0.0524    5.8504    2.7094 H       1  UNL1        0.0000
     33 C           2.8971    4.0679    3.2940 C.ar    1  UNL1        0.0000
     34 H           3.1978    3.0512    3.4951 H       1  UNL1        0.0000
     35 C          -0.4725    8.1665    0.1226 C.cat   1  UNL1        0.0000
     36 N           1.3057    9.0447   -0.7636 N.pl3   1  UNL1        0.0000
     37 C          -0.7679    8.9169    4.3120 C.cat   1  UNL1        0.0000
     38 C           0.7994   10.1103    5.2408 C.ar    1  UNL1        0.0000
     39 C           1.9074   10.8887    5.5484 C.ar    1  UNL1        0.0000
     40 H           2.5991   11.2000    4.7815 H       1  UNL1        0.0000
     41 C           0.0842   10.0799    7.5750 C.ar    1  UNL1        0.0000
     42 H          -0.6078    9.7735    8.3441 H       1  UNL1        0.0000
     43 C           1.1954   10.8527    7.8660 C.ar    1  UNL1        0.0000
     44 H           1.3750   11.1555    8.8861 H       1  UNL1        0.0000
     45 C           2.0860   11.2484    6.8709 C.ar    1  UNL1        0.0000
     46 H           2.9388   11.8525    7.1405 H       1  UNL1        0.0000
     47 C           0.5658    8.4054   -1.6588 C.2     1  UNL1        0.0000
     48 H           0.8381    8.3442   -2.6927 H       1  UNL1        0.0000
@<TRIPOS>BOND
     1    48    47    1
     2    47    20    2
     3    47    36    1
     4    20    35    1
     5    36    14    1
     6    35    14    1
     7    35    17    2
     8    14     1    1
     9    10     9    1
    10    17    12    1
    11     9    11    1
    12     9    27    1
    13    11    22    1
    14    28    27    1
    15    27     7    1
    16    22     7    1
    17    22     8    2
    18     7     1    1
    19     8     2    1
    20     2     1    1
    21     2     3    1
    22     1    12    1
    23     1     4    1
    24     1    13    1
    25    12    19    1
    26     3    24    2
    27     4    24    1
    28     4    23    1
    29    24     5    1
    30    32    31    1
    31    23    31   ar
    32    23    21   ar
    33     5     6    1
    34     5    21    1
    35    31    29   ar
    36    21    25   ar
    37    29    30    1
    38    29    33   ar
    39    25    33   ar
    40    25    26    1
    41    33    34    1
    42    19    37    2
    43    13    37    1
    44    13    38    1
    45    37    15    1
    46    40    39    1
    47    38    39   ar
    48    38    18   ar
    49    39    45   ar
    50    15    16    1
    51    15    18    1
    52    18    41   ar
    53    45    46    1
    54    45    43   ar
    55    41    43   ar
    56    41    42    1
    57    43    44    1
