@<TRIPOS>MOLECULE
CSD_code = FOPRUY | q = 1 | S = 0 | Stoichiometry = C32H32CoN6O2(1+) | MND = 6
 73 80 0 0 0
SMALL
GASTEIGER

@<TRIPOS>ATOM
      1 CO          1.6325    7.8854    1.8915 Co.oh   1  UNL1        0.0000
      2 O          -0.0440    8.2716    3.9598 O.3     1  UNL1        0.0000
      3 O          -0.0799    7.6031   -0.1633 O.3     1  UNL1        0.0000
      4 N           0.3317    8.4058    0.6995 N.3     1  UNL1        0.0000
      5 N           0.3125    7.4454    3.0948 N.3     1  UNL1        0.0000
      6 N           1.4900    6.0585    1.3957 N.pl3   1  UNL1        0.0000
      7 N           1.6059    9.7170    2.3891 N.pl3   1  UNL1        0.0000
      8 N           3.0710    8.1527    0.3564 N.pl3   1  UNL1        0.0000
      9 H           2.5050    8.0449   -0.4881 H       1  UNL1        0.0000
     10 H           3.5132    9.0708    0.3237 H       1  UNL1        0.0000
     11 N           3.0666    7.5304    3.4126 N.pl3   1  UNL1        0.0000
     12 H           3.4529    6.5873    3.4405 H       1  UNL1        0.0000
     13 H           2.5168    7.6715    4.2628 H       1  UNL1        0.0000
     14 C           0.4725    5.4716    1.9443 C.2     1  UNL1        0.0000
     15 C          -0.0359    4.1416    1.5619 C.ar    1  UNL1        0.0000
     16 C          -0.6042    3.9776    0.3008 C.ar    1  UNL1        0.0000
     17 H          -0.6595    4.8236   -0.3680 H       1  UNL1        0.0000
     18 C          -1.1227    2.7490   -0.0651 C.ar    1  UNL1        0.0000
     19 H          -1.5722    2.6273   -1.0384 H       1  UNL1        0.0000
     20 C          -1.0634    1.6788    0.8130 C.ar    1  UNL1        0.0000
     21 H          -1.4634    0.7198    0.5225 H       1  UNL1        0.0000
     22 C          -0.4947    1.8398    2.0660 C.ar    1  UNL1        0.0000
     23 H          -0.4494    1.0074    2.7512 H       1  UNL1        0.0000
     24 C           0.0110    3.0696    2.4473 C.ar    1  UNL1        0.0000
     25 H           0.4573    3.1960    3.4225 H       1  UNL1        0.0000
     26 C           3.6965    5.7959    0.3837 C.ar    1  UNL1        0.0000
     27 C           4.6798    4.8187    0.4284 C.ar    1  UNL1        0.0000
     28 H           4.3915    3.7783    0.4347 H       1  UNL1        0.0000
     29 C           6.0213    5.1620    0.4527 C.ar    1  UNL1        0.0000
     30 H           6.7728    4.3894    0.4812 H       1  UNL1        0.0000
     31 C           6.3937    6.4948    0.4339 C.ar    1  UNL1        0.0000
     32 H           7.4364    6.7694    0.4434 H       1  UNL1        0.0000
     33 C           5.4242    7.4819    0.3967 C.ar    1  UNL1        0.0000
     34 H           5.7107    8.5236    0.3794 H       1  UNL1        0.0000
     35 C           4.0802    7.1389    0.3756 C.ar    1  UNL1        0.0000
     36 C           4.1347    8.4817    3.3829 C.ar    1  UNL1        0.0000
     37 C           5.4553    8.0584    3.3461 C.ar    1  UNL1        0.0000
     38 H           5.6787    7.0013    3.3595 H       1  UNL1        0.0000
     39 C           6.4819    8.9854    3.2978 C.ar    1  UNL1        0.0000
     40 H           7.5060    8.6486    3.2759 H       1  UNL1        0.0000
     41 C           6.1903   10.3382    3.2841 C.ar    1  UNL1        0.0000
     42 H           6.9866   11.0643    3.2470 H       1  UNL1        0.0000
     43 C           4.8722   10.7617    3.3245 C.ar    1  UNL1        0.0000
     44 H           4.6470   11.8176    3.3219 H       1  UNL1        0.0000
     45 C           3.8326    9.8454    3.3802 C.ar    1  UNL1        0.0000
     46 C           0.1957   11.7216    2.2396 C.ar    1  UNL1        0.0000
     47 C          -0.3605   11.9121    3.5023 C.ar    1  UNL1        0.0000
     48 H          -0.4660   11.0671    4.1663 H       1  UNL1        0.0000
     49 C          -0.8030   13.1678    3.8761 C.ar    1  UNL1        0.0000
     50 H          -1.2437   13.3107    4.8505 H       1  UNL1        0.0000
     51 C          -0.6795   14.2377    3.0043 C.ar    1  UNL1        0.0000
     52 H          -1.0205   15.2174    3.3007 H       1  UNL1        0.0000
     53 C          -0.1219   14.0501    1.7500 C.ar    1  UNL1        0.0000
     54 H          -0.0260   14.8823    1.0698 H       1  UNL1        0.0000
     55 C           0.3079   12.7940    1.3608 C.ar    1  UNL1        0.0000
     56 H           0.7460   12.6469    0.3848 H       1  UNL1        0.0000
     57 C           2.2378    5.4271    0.3311 C.3     1  UNL1        0.0000
     58 H           1.8098    5.7646   -0.6237 H       1  UNL1        0.0000
     59 H           2.1250    4.3391    0.3808 H       1  UNL1        0.0000
     60 C           2.3992   10.3007    3.4479 C.3     1  UNL1        0.0000
     61 H           1.9605    9.9872    4.4061 H       1  UNL1        0.0000
     62 H           2.3508   11.3935    3.4011 H       1  UNL1        0.0000
     63 C           0.6211   10.3647    1.8499 C.2     1  UNL1        0.0000
     64 C          -1.1838   10.1968   -0.0108 C.3     1  UNL1        0.0000
     65 H          -0.7869   10.7819   -0.8400 H       1  UNL1        0.0000
     66 H          -1.8288   10.8384    0.5843 H       1  UNL1        0.0000
     67 H          -1.7616    9.3718   -0.4231 H       1  UNL1        0.0000
     68 C          -1.3038    5.7534    3.8205 C.3     1  UNL1        0.0000
     69 H          -0.9334    5.1857    4.6739 H       1  UNL1        0.0000
     70 H          -1.9690    5.1154    3.2447 H       1  UNL1        0.0000
     71 H          -1.8521    6.6137    4.2001 H       1  UNL1        0.0000
     72 C          -0.0832    9.6412    0.8319 C.2     1  UNL1        0.0000
     73 C          -0.1781    6.2375    2.9670 C.2     1  UNL1        0.0000
@<TRIPOS>BOND
     1    19    18    1
     2    65    64    1
     3    58    57    1
     4     9     8    1
     5    67    64    1
     6    17    16    1
     7     3     4    1
     8    18    16   ar
     9    18    20   ar
    10    64    66    1
    11    64    72    1
    12    16    15   ar
    13    10     8    1
    14    57    59    1
    15    57    26    1
    16    57     6    1
    17     8    35    1
    18     8     1    1
    19    35    26   ar
    20    35    33   ar
    21    34    33    1
    22    26    27   ar
    23    56    55    1
    24    33    31   ar
    25    27    28    1
    26    27    29   ar
    27    31    32    1
    28    31    29   ar
    29    29    30    1
    30    21    20    1
    31     4    72    1
    32     4     1    1
    33    20    22   ar
    34    72    63    2
    35    54    53    1
    36    55    53   ar
    37    55    46   ar
    38     6     1    1
    39     6    14    1
    40    15    14    1
    41    15    24   ar
    42    53    51   ar
    43    63    46    1
    44    63     7    1
    45     1     7    1
    46     1     5    1
    47     1    11    1
    48    14    73    2
    49    22    24   ar
    50    22    23    1
    51    46    47   ar
    52     7    60    1
    53    24    25    1
    54    73     5    1
    55    73    68    1
    56    51    52    1
    57    51    49   ar
    58     5     2    1
    59    70    68    1
    60    42    41    1
    61    40    39    1
    62    41    39   ar
    63    41    43   ar
    64    39    37   ar
    65    44    43    1
    66    43    45   ar
    67    37    38    1
    68    37    36   ar
    69    45    36   ar
    70    45    60    1
    71    36    11    1
    72    62    60    1
    73    11    12    1
    74    11    13    1
    75    60    61    1
    76    47    49   ar
    77    47    48    1
    78    68    71    1
    79    68    69    1
    80    49    50    1
