@<TRIPOS>MOLECULE
CSD_code = ICIDIH | q = 0 | S = 0 | Stoichiometry = C33H43ClCoN3 | MND = 4
 81 85 0 0 0
SMALL
GASTEIGER

@<TRIPOS>ATOM
      1 CO          5.1212    4.8059   12.2588 Co.oh   1  UNL1        0.0000
      2 CL          6.4661    4.8179   10.6838 Cl      1  UNL1        0.0000
      3 N           4.0780    4.8103   13.6503 N.pl3   1  UNL1        0.0000
      4 C           3.7466    5.9893   14.2363 C.2     1  UNL1        0.0000
      5 C           2.9434    6.0187   15.3716 C.2     1  UNL1        0.0000
      6 H           2.6842    6.9597   15.8295 H       1  UNL1        0.0000
      7 C           2.4888    4.8196   15.9048 C.2     1  UNL1        0.0000
      8 H           1.8647    4.8233   16.7850 H       1  UNL1        0.0000
      9 C           2.8419    3.6154   15.3098 C.2     1  UNL1        0.0000
     10 H           2.5016    2.6774   15.7184 H       1  UNL1        0.0000
     11 C           3.6447    3.6353   14.1740 C.2     1  UNL1        0.0000
     12 C           4.3571    7.0706   13.5167 C.3     1  UNL1        0.0000
     13 N           5.0798    6.6652   12.5034 N.pl3   1  UNL1        0.0000
     14 C           4.1699    8.4974   13.9194 C.3     1  UNL1        0.0000
     15 H           3.1073    8.7305   13.9777 H       1  UNL1        0.0000
     16 H           4.6456    9.1660   13.2063 H       1  UNL1        0.0000
     17 H           4.6036    8.6648   14.9053 H       1  UNL1        0.0000
     18 C           4.1400    2.5449   13.3824 C.2     1  UNL1        0.0000
     19 N           4.8754    2.9390   12.3750 N.pl3   1  UNL1        0.0000
     20 C           3.8338    1.1196   13.7159 C.3     1  UNL1        0.0000
     21 H           2.7602    0.9398   13.6601 H       1  UNL1        0.0000
     22 H           4.1543    0.9026   14.7347 H       1  UNL1        0.0000
     23 H           4.3403    0.4454   13.0296 H       1  UNL1        0.0000
     24 C           5.7691    7.6152   11.7138 C.ar    1  UNL1        0.0000
     25 C           5.1902    8.0660   10.5229 C.ar    1  UNL1        0.0000
     26 C           5.8702    9.0123    9.7712 C.ar    1  UNL1        0.0000
     27 H           5.4328    9.3804    8.8558 H       1  UNL1        0.0000
     28 C           7.1027    9.4880   10.1751 C.ar    1  UNL1        0.0000
     29 H           7.6198   10.2255    9.5790 H       1  UNL1        0.0000
     30 C           7.6819    9.0042   11.3323 C.ar    1  UNL1        0.0000
     31 H           8.6574    9.3605   11.6263 H       1  UNL1        0.0000
     32 C           7.0299    8.0676   12.1204 C.ar    1  UNL1        0.0000
     33 C           3.8596    7.5246   10.0539 C.3     1  UNL1        0.0000
     34 H           3.5556    6.7157   10.7313 H       1  UNL1        0.0000
     35 C           3.9901    6.9226    8.6543 C.3     1  UNL1        0.0000
     36 H           3.0598    6.4364    8.3682 H       1  UNL1        0.0000
     37 H           4.7867    6.1828    8.6486 H       1  UNL1        0.0000
     38 H           4.2198    7.6861    7.9158 H       1  UNL1        0.0000
     39 C           2.7839    8.6116   10.0918 C.3     1  UNL1        0.0000
     40 H           2.6754    9.0112   11.0984 H       1  UNL1        0.0000
     41 H           1.8257    8.2030    9.7776 H       1  UNL1        0.0000
     42 H           3.0429    9.4310    9.4252 H       1  UNL1        0.0000
     43 C           7.7012    7.5094   13.3541 C.3     1  UNL1        0.0000
     44 H           7.0017    6.8401   13.8670 H       1  UNL1        0.0000
     45 C           8.1039    8.6151   14.3313 C.3     1  UNL1        0.0000
     46 H           8.4933    8.1784   15.2488 H       1  UNL1        0.0000
     47 H           7.2485    9.2398   14.5819 H       1  UNL1        0.0000
     48 H           8.8761    9.2501   13.9048 H       1  UNL1        0.0000
     49 C           8.9121    6.6720   12.9361 C.3     1  UNL1        0.0000
     50 H           9.3661    6.2038   13.8073 H       1  UNL1        0.0000
     51 H           9.6598    7.2891   12.4441 H       1  UNL1        0.0000
     52 H           8.5964    5.8956   12.2435 H       1  UNL1        0.0000
     53 C           5.3923    1.9942   11.4616 C.ar    1  UNL1        0.0000
     54 C           6.7300    1.6008   11.5677 C.ar    1  UNL1        0.0000
     55 C           7.2266    0.6893   10.6475 C.ar    1  UNL1        0.0000
     56 H           8.2517    0.3614   10.7204 H       1  UNL1        0.0000
     57 C           6.4275    0.2009    9.6334 C.ar    1  UNL1        0.0000
     58 H           6.8303   -0.5006    8.9175 H       1  UNL1        0.0000
     59 C           5.1120    0.6139    9.5263 C.ar    1  UNL1        0.0000
     60 H           4.5074    0.2329    8.7193 H       1  UNL1        0.0000
     61 C           4.5660    1.5021   10.4394 C.ar    1  UNL1        0.0000
     62 C           7.6083    2.1398   12.6731 C.3     1  UNL1        0.0000
     63 H           7.1011    3.0037   13.1252 H       1  UNL1        0.0000
     64 C           8.9500    2.6346   12.1344 C.3     1  UNL1        0.0000
     65 H           9.5016    3.1413   12.9236 H       1  UNL1        0.0000
     66 H           8.7788    3.3367   11.3226 H       1  UNL1        0.0000
     67 H           9.5606    1.8141   11.7665 H       1  UNL1        0.0000
     68 C           7.8110    1.0757   13.7544 C.3     1  UNL1        0.0000
     69 H           8.4309    1.4684   14.5576 H       1  UNL1        0.0000
     70 H           8.3025    0.1994   13.3365 H       1  UNL1        0.0000
     71 H           6.8571    0.7643   14.1755 H       1  UNL1        0.0000
     72 C           3.1357    1.9850   10.3229 C.3     1  UNL1        0.0000
     73 H           2.7327    2.1244   11.3321 H       1  UNL1        0.0000
     74 C           3.1187    3.3465    9.6219 C.3     1  UNL1        0.0000
     75 H           3.7036    4.0723   10.1944 H       1  UNL1        0.0000
     76 H           2.0989    3.7157    9.5326 H       1  UNL1        0.0000
     77 H           3.5556    3.2670    8.6294 H       1  UNL1        0.0000
     78 C           2.2174    1.0016    9.5982 C.3     1  UNL1        0.0000
     79 H           1.1829    1.3222    9.7060 H       1  UNL1        0.0000
     80 H           2.3124    0.0014   10.0161 H       1  UNL1        0.0000
     81 H           2.4434    0.9620    8.5357 H       1  UNL1        0.0000
@<TRIPOS>BOND
     1    38    35    1
     2    36    35    1
     3    81    78    1
     4    77    74    1
     5    37    35    1
     6    35    33    1
     7    60    59    1
     8    27    26    1
     9    58    57    1
    10    42    39    1
    11    59    57   ar
    12    59    61   ar
    13    76    74    1
    14    29    28    1
    15    78    79    1
    16    78    80    1
    17    78    72    1
    18    74    75    1
    19    74    72    1
    20    57    55   ar
    21    26    28   ar
    22    26    25   ar
    23    41    39    1
    24    33    39    1
    25    33    25    1
    26    33    34    1
    27    39    40    1
    28    28    30   ar
    29    72    61    1
    30    72    73    1
    31    61    53   ar
    32    25    24   ar
    33    55    56    1
    34    55    54   ar
    35     2     1    1
    36    66    64    1
    37    30    31    1
    38    30    32   ar
    39    53    54   ar
    40    53    19    1
    41    54    62    1
    42    24    32   ar
    43    24    13    1
    44    67    64    1
    45    32    43    1
    46    64    62    1
    47    64    65    1
    48    52    49    1
    49     1    19    1
    50     1    13    1
    51     1     3    1
    52    19    18    1
    53    51    49    1
    54    13    12    1
    55    62    63    1
    56    62    68    1
    57    49    43    1
    58    49    50    1
    59    23    20    1
    60    16    14    1
    61    70    68    1
    62    43    44    1
    63    43    45    1
    64    18    20    1
    65    18    11    2
    66    12    14    1
    67    12     4    1
    68     3    11    1
    69     3     4    1
    70    21    20    1
    71    20    22    1
    72    68    71    1
    73    68    69    1
    74    48    45    1
    75    14    15    1
    76    14    17    1
    77    11     9    1
    78     4     5    2
    79    45    47    1
    80    45    46    1
    81     9    10    1
    82     9     7    2
    83     5     6    1
    84     5     7    1
    85     7     8    1
