@<TRIPOS>MOLECULE
CSD_code = ICIRIX | q = 0 | S = 0 | Stoichiometry = C15H10Cl4CoN3 | MND = 6
 33 37 0 0 0
SMALL
GASTEIGER

@<TRIPOS>ATOM
      1 CO          0.2249    7.1574    3.3639 Co.oh   1  UNL1        0.0000
      2 N           1.7274    8.0012    4.1391 N.pl3   1  UNL1        0.0000
      3 N          -0.4858    7.3326    4.9933 N.pl3   1  UNL1        0.0000
      4 N          -1.4291    6.3484    2.9398 N.pl3   1  UNL1        0.0000
      5 C           2.8811    8.3081    3.5605 C.3     1  UNL1        0.0000
      6 C           3.9141    8.9288    4.2442 C.2     1  UNL1        0.0000
      7 C           3.7452    9.2447    5.5829 C.2     1  UNL1        0.0000
      8 C           2.5435    8.9275    6.1913 C.2     1  UNL1        0.0000
      9 C           1.5498    8.3050    5.4460 C.2     1  UNL1        0.0000
     10 C           0.2410    7.9114    5.9520 C.3     1  UNL1        0.0000
     11 C          -0.2796    8.0667    7.2303 C.2     1  UNL1        0.0000
     12 C          -1.5688    7.6026    7.4714 C.2     1  UNL1        0.0000
     13 C          -2.3102    7.0019    6.4589 C.2     1  UNL1        0.0000
     14 C          -1.7242    6.8811    5.2055 C.2     1  UNL1        0.0000
     15 C          -2.2801    6.2978    3.9911 C.3     1  UNL1        0.0000
     16 C          -3.5456    5.7357    3.8780 C.2     1  UNL1        0.0000
     17 C          -3.9469    5.2145    2.6605 C.2     1  UNL1        0.0000
     18 C          -3.0664    5.2734    1.5920 C.2     1  UNL1        0.0000
     19 C          -1.8189    5.8482    1.7747 C.2     1  UNL1        0.0000
     20 CL         -2.2529    7.7724    9.0376 Cl      1  UNL1        0.0000
     21 CL         -0.6366    9.1569    2.8754 Cl      1  UNL1        0.0000
     22 CL          1.0834    6.9462    1.3954 Cl      1  UNL1        0.0000
     23 CL          1.0124    5.1761    4.0228 Cl      1  UNL1        0.0000
     24 H           2.9785    8.0465    2.5145 H       1  UNL1        0.0000
     25 H           4.8326    9.1563    3.7280 H       1  UNL1        0.0000
     26 H           4.5314    9.7274    6.1428 H       1  UNL1        0.0000
     27 H           2.3706    9.1562    7.2304 H       1  UNL1        0.0000
     28 H           0.2899    8.5315    8.0173 H       1  UNL1        0.0000
     29 H          -3.3079    6.6445    6.6509 H       1  UNL1        0.0000
     30 H          -4.1992    5.7102    4.7347 H       1  UNL1        0.0000
     31 H          -4.9250    4.7724    2.5501 H       1  UNL1        0.0000
     32 H          -3.3346    4.8812    0.6246 H       1  UNL1        0.0000
     33 H          -1.1061    5.9110    0.9622 H       1  UNL1        0.0000
@<TRIPOS>BOND
     1    32    18    1
     2    33    19    1
     3    22     1    1
     4    18    19    2
     5    18    17    1
     6    19     4    1
     7    24     5    1
     8    31    17    1
     9    17    16    2
    10    21     1    1
    11     4     1    1
    12     4    15    1
    13     1    23    1
    14     1     2    1
    15     1     3    1
    16     5     2    1
    17     5     6    1
    18    25     6    1
    19    16    15    1
    20    16    30    1
    21    15    14    1
    22     2     9    1
    23     6     7    2
    24     3    14    1
    25     3    10    1
    26    14    13    2
    27     9    10    1
    28     9     8    2
    29     7    26    1
    30     7     8    1
    31    10    11    1
    32     8    27    1
    33    13    29    1
    34    13    12    1
    35    11    12    2
    36    11    28    1
    37    12    20    1
