@<TRIPOS>MOLECULE
CSD_code = ILACUT | q = 1 | S = 0 | Stoichiometry = C22H18CoN10(1+) | MND = 6
 51 60 0 0 0
SMALL
GASTEIGER

@<TRIPOS>ATOM
      1 CO         17.4102   -6.9135    4.9063 Co.oh   1  UNL1        0.0000
      2 C          15.5293   -5.2970    8.7350 C.3     1  UNL1        0.0000
      3 H          15.4797   -5.0181    9.7675 H       1  UNL1        0.0000
      4 C          14.5345   -5.5862    7.8347 C.2     1  UNL1        0.0000
      5 H          13.4808   -5.5950    8.0174 H       1  UNL1        0.0000
      6 C          15.2124   -5.8920    6.6345 C.2     1  UNL1        0.0000
      7 C          14.6998   -6.3005    5.3402 C.3     1  UNL1        0.0000
      8 C          13.3522   -6.1548    5.0227 C.2     1  UNL1        0.0000
      9 H          12.6781   -5.7226    5.7435 H       1  UNL1        0.0000
     10 C          12.8970   -6.5630    3.7809 C.2     1  UNL1        0.0000
     11 H          11.8576   -6.4606    3.5126 H       1  UNL1        0.0000
     12 C          13.8085   -7.1052    2.8916 C.2     1  UNL1        0.0000
     13 H          13.4977   -7.4313    1.9129 H       1  UNL1        0.0000
     14 C          15.1437   -7.2266    3.2669 C.2     1  UNL1        0.0000
     15 C          16.1246   -7.8022    2.3659 C.3     1  UNL1        0.0000
     16 C          15.9531   -8.5335    1.1701 C.2     1  UNL1        0.0000
     17 H          15.0381   -8.8042    0.6875 H       1  UNL1        0.0000
     18 C          17.2266   -8.8474    0.7658 C.2     1  UNL1        0.0000
     19 H          17.5761   -9.3966   -0.0842 H       1  UNL1        0.0000
     20 C          18.3767   -3.1143    3.3548 C.3     1  UNL1        0.0000
     21 H          18.1605   -2.1802    2.8778 H       1  UNL1        0.0000
     22 C          19.5607   -3.6184    3.8356 C.2     1  UNL1        0.0000
     23 H          20.5215   -3.1490    3.8195 H       1  UNL1        0.0000
     24 C          19.2287   -4.8842    4.3516 C.2     1  UNL1        0.0000
     25 C          19.9638   -5.9479    4.9988 C.3     1  UNL1        0.0000
     26 C          21.3213   -5.9713    5.2946 C.2     1  UNL1        0.0000
     27 H          21.9461   -5.1322    5.0358 H       1  UNL1        0.0000
     28 C          21.8496   -7.0896    5.9252 C.2     1  UNL1        0.0000
     29 H          22.9001   -7.1318    6.1652 H       1  UNL1        0.0000
     30 C          21.0168   -8.1525    6.2445 C.2     1  UNL1        0.0000
     31 H          21.3987   -9.0332    6.7344 H       1  UNL1        0.0000
     32 C          19.6689   -8.0627    5.9194 C.2     1  UNL1        0.0000
     33 C          18.6329   -9.0403    6.1560 C.3     1  UNL1        0.0000
     34 C          18.5633  -10.3176    6.7395 C.2     1  UNL1        0.0000
     35 H          19.3613  -10.8820    7.1735 H       1  UNL1        0.0000
     36 C          17.2440  -10.6834    6.6310 C.2     1  UNL1        0.0000
     37 H          16.7414  -11.5760    6.9426 H       1  UNL1        0.0000
     38 N          16.5264   -5.7801    6.8147 N.pl3   1  UNL1        0.0000
     39 N          15.5916   -6.8301    4.4766 N.pl3   1  UNL1        0.0000
     40 N          17.4208   -7.6854    2.6435 N.3     1  UNL1        0.0000
     41 N          16.7006   -5.4253    8.0774 N.3     1  UNL1        0.0000
     42 H          17.6292   -5.2737    8.4407 H       1  UNL1        0.0000
     43 N          18.0678   -8.3175    1.6781 N.pl3   1  UNL1        0.0000
     44 H          19.0757   -8.3542    1.6792 H       1  UNL1        0.0000
     45 N          17.9224   -5.1143    4.1846 N.pl3   1  UNL1        0.0000
     46 N          19.1582   -6.9785    5.3081 N.pl3   1  UNL1        0.0000
     47 N          17.4194   -8.6709    5.7252 N.3     1  UNL1        0.0000
     48 N          17.4247   -4.0419    3.5844 N.3     1  UNL1        0.0000
     49 H          16.4448   -3.9818    3.3523 H       1  UNL1        0.0000
     50 N          16.5943   -9.6708    6.0187 N.pl3   1  UNL1        0.0000
     51 H          15.6133   -9.6252    5.7888 H       1  UNL1        0.0000
@<TRIPOS>BOND
     1    19    18    1
     2    17    16    1
     3    18    16    2
     4    18    43    1
     5    16    15    1
     6    43    44    1
     7    43    40    1
     8    13    12    1
     9    15    40    1
    10    15    14    1
    11    40     1    1
    12    21    20    1
    13    12    14    2
    14    12    10    1
    15    14    39    1
    16    49    48    1
    17    20    48    1
    18    20    22    1
    19    11    10    1
    20    48    45    1
    21    10     8    2
    22    23    22    1
    23    22    24    2
    24    45    24    1
    25    45     1    1
    26    24    25    1
    27    39     1    1
    28    39     7    1
    29     1    46    1
    30     1    47    1
    31     1    38    1
    32    25    26    1
    33    25    46    1
    34     8     7    1
    35     8     9    1
    36    27    26    1
    37    26    28    2
    38    46    32    1
    39     7     6    1
    40    47    50    1
    41    47    33    1
    42    51    50    1
    43    32    33    1
    44    32    30    2
    45    28    29    1
    46    28    30    1
    47    50    36    1
    48    33    34    1
    49    30    31    1
    50    36    34    2
    51    36    37    1
    52     6    38    1
    53     6     4    2
    54    34    35    1
    55    38    41    1
    56     4     5    1
    57     4     2    1
    58    41    42    1
    59    41     2    1
    60     2     3    1
