@<TRIPOS>MOLECULE
CSD_code = JORFII | q = -1 | S = 0 | Stoichiometry = C18H22BCoN9(1-) | MND = 6
 51 55 0 0 0
SMALL
GASTEIGER

@<TRIPOS>ATOM
      1 CO          1.9072    3.8617    8.8680 Co.oh   1  UNL1        0.0000
      2 C           0.5504    3.5817   10.0638 C.1     1  UNL1        0.0000
      3 C           2.7051    2.3384    9.4941 C.1     1  UNL1        0.0000
      4 C           0.9939    2.8286    7.6649 C.1     1  UNL1        0.0000
      5 C           3.2027    4.8964   11.4929 C.3     1  UNL1        0.0000
      6 C           3.9533    6.0109   11.8854 C.2     1  UNL1        0.0000
      7 C           4.0976    6.7832   10.7503 C.2     1  UNL1        0.0000
      8 C          -0.2199    5.8763    7.8420 C.3     1  UNL1        0.0000
      9 C          -0.2365    7.2124    7.4246 C.2     1  UNL1        0.0000
     10 C           1.0674    7.6534    7.5297 C.2     1  UNL1        0.0000
     11 C           4.8702    5.4574    6.5138 C.3     1  UNL1        0.0000
     12 C           5.0255    4.1756    6.0256 C.2     1  UNL1        0.0000
     13 C           4.0822    3.3946    6.7038 C.2     1  UNL1        0.0000
     14 C           2.7836    3.7698   12.3661 C.3     1  UNL1        0.0000
     15 C           4.8073    8.0819   10.5893 C.3     1  UNL1        0.0000
     16 C          -1.3901    4.9633    7.9071 C.3     1  UNL1        0.0000
     17 C           1.6256    8.9978    7.2183 C.3     1  UNL1        0.0000
     18 C           5.6141    6.6929    6.1442 C.3     1  UNL1        0.0000
     19 C           3.8588    1.9368    6.5245 C.3     1  UNL1        0.0000
     20 N          -0.3014    3.4834   10.8345 N.1     1  UNL1        0.0000
     21 N           3.2781    1.4193    9.8893 N.1     1  UNL1        0.0000
     22 N           0.4359    2.2356    6.8487 N.1     1  UNL1        0.0000
     23 N           1.0244    5.5466    8.1753 N.3     1  UNL1        0.0000
     24 N           2.9194    5.0044   10.1983 N.3     1  UNL1        0.0000
     25 N           3.4075    4.1719    7.5455 N.pl3   1  UNL1        0.0000
     26 N           3.4618    6.1473    9.7501 N.pl3   1  UNL1        0.0000
     27 N           1.8027    6.6233    7.9853 N.pl3   1  UNL1        0.0000
     28 N           3.8857    5.4205    7.4295 N.3     1  UNL1        0.0000
     29 B           3.3037    6.5524    8.2816 B       1  UNL1        0.0000
     30 H           3.8391    7.5836    8.0565 H       1  UNL1        0.0000
     31 H           4.3361    6.2195   12.8655 H       1  UNL1        0.0000
     32 H          -1.0873    7.7749    7.0923 H       1  UNL1        0.0000
     33 H           5.7232    3.8444    5.2812 H       1  UNL1        0.0000
     34 H           3.1816    2.8297   11.9889 H       1  UNL1        0.0000
     35 H           1.6990    3.6801   12.3748 H       1  UNL1        0.0000
     36 H           3.1440    3.9380   13.3794 H       1  UNL1        0.0000
     37 H           5.6070    7.9972    9.8542 H       1  UNL1        0.0000
     38 H           4.1213    8.8587   10.2529 H       1  UNL1        0.0000
     39 H           5.2363    8.3803   11.5434 H       1  UNL1        0.0000
     40 H          -1.2282    4.0941    7.2724 H       1  UNL1        0.0000
     41 H          -1.5305    4.5988    8.9229 H       1  UNL1        0.0000
     42 H          -2.2850    5.4909    7.5818 H       1  UNL1        0.0000
     43 H           2.3900    8.9301    6.4449 H       1  UNL1        0.0000
     44 H           2.0803    9.4421    8.1033 H       1  UNL1        0.0000
     45 H           0.8273    9.6488    6.8684 H       1  UNL1        0.0000
     46 H           6.1266    7.1098    7.0107 H       1  UNL1        0.0000
     47 H           6.3510    6.4563    5.3797 H       1  UNL1        0.0000
     48 H           4.9353    7.4520    5.7568 H       1  UNL1        0.0000
     49 H           4.0101    1.4116    7.4657 H       1  UNL1        0.0000
     50 H           4.5480    1.5499    5.7760 H       1  UNL1        0.0000
     51 H           2.8344    1.7462    6.2103 H       1  UNL1        0.0000
@<TRIPOS>BOND
     1    33    12    1
     2    47    18    1
     3    48    18    1
     4    50    19    1
     5    12    11    1
     6    12    13    2
     7    18    11    1
     8    18    46    1
     9    51    19    1
    10    43    17    1
    11    11    28    1
    12    19    13    1
    13    19    49    1
    14    13    25    1
    15    22     4    3
    16    45    17    1
    17    32     9    1
    18    17    10    1
    19    17    44    1
    20    40    16    1
    21     9    10    2
    22     9     8    1
    23    28    25    1
    24    28    29    1
    25    10    27    1
    26    25     1    1
    27    42    16    1
    28     4     1    1
    29     8    16    1
    30     8    23    1
    31    16    41    1
    32    27    23    1
    33    27    29    1
    34    30    29    1
    35    23     1    1
    36    29    26    1
    37     1     3    1
    38     1     2    1
    39     1    24    1
    40     3    21    3
    41    26    24    1
    42    26     7    1
    43    37    15    1
    44     2    20    3
    45    24     5    1
    46    38    15    1
    47    15     7    1
    48    15    39    1
    49     7     6    2
    50     5     6    1
    51     5    14    1
    52     6    31    1
    53    34    14    1
    54    14    35    1
    55    14    36    1
