@<TRIPOS>MOLECULE
CSD_code = KOJVOX | q = 0 | S = 0 | Stoichiometry = C24H40BCoN6S | MND = 4
 73 77 0 0 0
SMALL
GASTEIGER

@<TRIPOS>ATOM
      1 CO         -2.2009   -7.4741   -7.6630 Co.oh   1  UNL1        0.0000
      2 S          -0.6389   -6.5283   -6.7722 S.3     1  UNL1        0.0000
      3 B          -4.9886   -8.2492   -7.1867 B       1  UNL1        0.0000
      4 H          -6.1052   -8.5425   -6.9581 H       1  UNL1        0.0000
      5 N          -4.5363   -8.7708   -8.5567 N.3     1  UNL1        0.0000
      6 N          -3.2988   -8.4848   -8.9860 N.pl3   1  UNL1        0.0000
      7 N          -4.8078   -6.7249   -7.2236 N.3     1  UNL1        0.0000
      8 N          -3.6684   -6.1727   -7.6817 N.pl3   1  UNL1        0.0000
      9 N          -4.0274   -8.8600   -6.1580 N.3     1  UNL1        0.0000
     10 N          -2.7009   -8.8913   -6.3898 N.pl3   1  UNL1        0.0000
     11 C          -6.5819   -9.9868   -9.3126 C.3     1  UNL1        0.0000
     12 H          -6.8758  -10.5545  -10.1913 H       1  UNL1        0.0000
     13 H          -6.6628  -10.6268   -8.4355 H       1  UNL1        0.0000
     14 H          -7.2689   -9.1517   -9.1860 H       1  UNL1        0.0000
     15 C          -5.1881   -9.4993   -9.4783 C.3     1  UNL1        0.0000
     16 C          -4.3271   -9.6813  -10.5440 C.2     1  UNL1        0.0000
     17 H          -4.5357  -10.2175  -11.4466 H       1  UNL1        0.0000
     18 C          -3.1419   -9.0254  -10.1936 C.2     1  UNL1        0.0000
     19 C          -1.9165   -8.8470  -11.0482 C.3     1  UNL1        0.0000
     20 C          -2.1304   -7.5928  -11.9077 C.3     1  UNL1        0.0000
     21 H          -1.2868   -7.4472  -12.5789 H       1  UNL1        0.0000
     22 H          -3.0358   -7.6880  -12.5038 H       1  UNL1        0.0000
     23 H          -2.2248   -6.7169  -11.2720 H       1  UNL1        0.0000
     24 C          -0.6642   -8.6733  -10.1896 C.3     1  UNL1        0.0000
     25 H           0.1787   -8.3660  -10.8044 H       1  UNL1        0.0000
     26 H          -0.8253   -7.8997   -9.4222 H       1  UNL1        0.0000
     27 H          -0.4103   -9.6071   -9.6947 H       1  UNL1        0.0000
     28 C          -1.7271  -10.0630  -11.9623 C.3     1  UNL1        0.0000
     29 H          -0.7897   -9.9714  -12.5064 H       1  UNL1        0.0000
     30 H          -1.6992  -10.9806  -11.3786 H       1  UNL1        0.0000
     31 H          -2.5334  -10.1372  -12.6872 H       1  UNL1        0.0000
     32 C          -7.1006   -6.0288   -6.5083 C.3     1  UNL1        0.0000
     33 H          -7.6158   -5.0831   -6.3623 H       1  UNL1        0.0000
     34 H          -7.6718   -6.6348   -7.2096 H       1  UNL1        0.0000
     35 H          -7.0589   -6.5593   -5.5593 H       1  UNL1        0.0000
     36 C          -5.7318   -5.7704   -7.0252 C.3     1  UNL1        0.0000
     37 C          -5.1643   -4.5643   -7.3824 C.2     1  UNL1        0.0000
     38 H          -5.6365   -3.6053   -7.3420 H       1  UNL1        0.0000
     39 C          -3.8627   -4.8560   -7.8036 C.2     1  UNL1        0.0000
     40 C          -2.8696   -3.8542   -8.3352 C.3     1  UNL1        0.0000
     41 C          -1.9606   -3.3884   -7.1917 C.3     1  UNL1        0.0000
     42 H          -1.2714   -2.6263   -7.5480 H       1  UNL1        0.0000
     43 H          -2.5539   -2.9730   -6.3799 H       1  UNL1        0.0000
     44 H          -1.3817   -4.2230   -6.8021 H       1  UNL1        0.0000
     45 C          -2.0387   -4.4705   -9.4625 C.3     1  UNL1        0.0000
     46 H          -1.2732   -3.7714   -9.7907 H       1  UNL1        0.0000
     47 H          -1.5455   -5.3817   -9.1207 H       1  UNL1        0.0000
     48 H          -2.6793   -4.7103  -10.3093 H       1  UNL1        0.0000
     49 C          -3.6155   -2.6365   -8.8981 C.3     1  UNL1        0.0000
     50 H          -2.9069   -1.9749   -9.3915 H       1  UNL1        0.0000
     51 H          -4.3648   -2.9420   -9.6254 H       1  UNL1        0.0000
     52 H          -4.1038   -2.0743   -8.1067 H       1  UNL1        0.0000
     53 C          -5.6960   -9.7847   -4.5426 C.3     1  UNL1        0.0000
     54 H          -5.6510  -10.3620   -3.6230 H       1  UNL1        0.0000
     55 H          -6.1481   -8.8177   -4.3321 H       1  UNL1        0.0000
     56 H          -6.3326  -10.3079   -5.2543 H       1  UNL1        0.0000
     57 C          -4.3238   -9.6134   -5.0861 C.3     1  UNL1        0.0000
     58 C          -3.1433  -10.1583   -4.6245 C.2     1  UNL1        0.0000
     59 H          -3.0323  -10.8075   -3.7815 H       1  UNL1        0.0000
     60 C          -2.1386   -9.6916   -5.4791 C.2     1  UNL1        0.0000
     61 C          -0.6840  -10.0796   -5.4070 C.3     1  UNL1        0.0000
     62 C           0.0695   -9.0641   -4.5400 C.3     1  UNL1        0.0000
     63 H           1.1140   -9.3524   -4.4477 H       1  UNL1        0.0000
     64 H           0.0220   -8.0743   -4.9890 H       1  UNL1        0.0000
     65 H          -0.3695   -9.0122   -3.5459 H       1  UNL1        0.0000
     66 C          -0.5560  -11.4690   -4.7671 C.3     1  UNL1        0.0000
     67 H           0.4794  -11.7983   -4.8203 H       1  UNL1        0.0000
     68 H          -0.8472  -11.4494   -3.7205 H       1  UNL1        0.0000
     69 H          -1.1754  -12.1949   -5.2898 H       1  UNL1        0.0000
     70 C          -0.0756  -10.1346   -6.8090 C.3     1  UNL1        0.0000
     71 H           0.9705  -10.4269   -6.7529 H       1  UNL1        0.0000
     72 H          -0.6096  -10.8567   -7.4243 H       1  UNL1        0.0000
     73 H          -0.1322   -9.1560   -7.2823 H       1  UNL1        0.0000
@<TRIPOS>BOND
     1    31    28    1
     2    21    20    1
     3    29    28    1
     4    22    20    1
     5    28    30    1
     6    28    19    1
     7    20    23    1
     8    20    19    1
     9    17    16    1
    10    19    18    1
    11    19    24    1
    12    25    24    1
    13    16    18    2
    14    16    15    1
    15    48    45    1
    16    18     6    1
    17    12    11    1
    18    24    27    1
    19    24    26    1
    20    46    45    1
    21    51    49    1
    22    15    11    1
    23    15     5    1
    24    45    47    1
    25    45    40    1
    26    50    49    1
    27    11    14    1
    28    11    13    1
    29     6     5    1
    30     6     1    1
    31    49    40    1
    32    49    52    1
    33     5     3    1
    34    40    39    1
    35    40    41    1
    36    39     8    1
    37    39    37    2
    38     8     1    1
    39     8     7    1
    40     1     2    1
    41     1    10    1
    42    42    41    1
    43    72    70    1
    44    37    38    1
    45    37    36    1
    46    73    70    1
    47     7     3    1
    48     7    36    1
    49    34    32    1
    50    41    44    1
    51    41    43    1
    52     3     4    1
    53     3     9    1
    54    36    32    1
    55    70    71    1
    56    70    61    1
    57    32    33    1
    58    32    35    1
    59    10     9    1
    60    10    60    1
    61     9    57    1
    62    60    61    1
    63    60    58    2
    64    61    66    1
    65    61    62    1
    66    69    66    1
    67    56    53    1
    68    57    58    1
    69    57    53    1
    70    64    62    1
    71    67    66    1
    72    66    68    1
    73    58    59    1
    74    53    55    1
    75    53    54    1
    76    62    63    1
    77    62    65    1
