@<TRIPOS>MOLECULE
CSD_code = KOQQAK | q = 1 | S = 0 | Stoichiometry = C50H54CoN8O10(1+) | MND = 6
 123 134 0 0 0
SMALL
GASTEIGER

@<TRIPOS>ATOM
      1 CO          5.7589    2.6959   13.8474 Co.oh   1  UNL1        0.0000
      2 O          10.8196   -0.5179   10.9057 O.3     1  UNL1        0.0000
      3 O          -0.4989    1.0797   15.5290 O.3     1  UNL1        0.0000
      4 O          12.3654   -2.9300   10.4257 O.3     1  UNL1        0.0000
      5 O          10.5624   -3.9355    8.3065 O.3     1  UNL1        0.0000
      6 O           7.7378   -3.1138    8.6371 O.3     1  UNL1        0.0000
      7 O           8.4154   -0.6276    9.9926 O.3     1  UNL1        0.0000
      8 O           1.4929   -0.4749   16.0181 O.3     1  UNL1        0.0000
      9 O           0.8599   -3.3144   15.9995 O.3     1  UNL1        0.0000
     10 O          -2.0596   -2.8691   16.2255 O.3     1  UNL1        0.0000
     11 O          -2.9829   -0.3344   15.0174 O.3     1  UNL1        0.0000
     12 N           7.4090    3.5536   14.3913 N.pl3   1  UNL1        0.5000
     13 N           7.6227    3.4984   12.0843 N.pl3   1  UNL1        0.5000
     14 N           6.4510    2.9693   12.2026 N.pl3   1  UNL1        0.0000
     15 N           4.2834    1.9386   12.8941 N.pl3   1  UNL1        0.0000
     16 N           4.7217    4.3292   13.9489 N.pl3   1  UNL1        0.5000
     17 N           4.2474    3.3205   15.9808 N.pl3   1  UNL1        0.5000
     18 N           5.0753    2.4538   15.5005 N.pl3   1  UNL1        0.0000
     19 N           6.6372    1.0271   14.1722 N.pl3   1  UNL1        0.0000
     20 C           7.9217    3.8299   15.5874 C.3     1  UNL1        0.0000
     21 H           7.2872    3.6468   16.4446 H       1  UNL1        0.0000
     22 C           9.1960    4.3324   15.7551 C.2     1  UNL1        0.0000
     23 H           9.5620    4.5455   16.7455 H       1  UNL1        0.0000
     24 C           9.9878    4.5577   14.6293 C.2     1  UNL1        0.0000
     25 H          10.9887    4.9453   14.7371 H       1  UNL1        0.0000
     26 C           9.4750    4.2787   13.3853 C.2     1  UNL1        0.0000
     27 H          10.0357    4.4268   12.4781 H       1  UNL1        0.0000
     28 C           8.1714    3.7722   13.2841 C.2     1  UNL1        0.0000
     29 C           5.6895    2.6236   11.1616 C.ar    1  UNL1        0.0000
     30 C           6.0137    2.7486    9.7941 C.ar    1  UNL1        0.0000
     31 H           6.9787    3.1499    9.5285 H       1  UNL1        0.0000
     32 C           5.0996    2.3497    8.8626 C.ar    1  UNL1        0.0000
     33 H           5.3209    2.4324    7.8103 H       1  UNL1        0.0000
     34 C           3.8543    1.8141    9.2625 C.ar    1  UNL1        0.0000
     35 H           3.1601    1.4953    8.4998 H       1  UNL1        0.0000
     36 C           3.5120    1.6816   10.5778 C.ar    1  UNL1        0.0000
     37 H           2.5672    1.2510   10.8704 H       1  UNL1        0.0000
     38 C           4.4307    2.0799   11.5810 C.ar    1  UNL1        0.0000
     39 C           3.0392    1.6918   13.4728 C.ar    1  UNL1        0.0000
     40 C           1.9522    2.5167   13.2009 C.ar    1  UNL1        0.0000
     41 H           2.0554    3.3228   12.4890 H       1  UNL1        0.0000
     42 C           0.7537    2.3333   13.8692 C.ar    1  UNL1        0.0000
     43 H          -0.0690    2.9954   13.6529 H       1  UNL1        0.0000
     44 C           0.6119    1.3275   14.8144 C.ar    1  UNL1        0.0000
     45 C           1.7164    0.4735   15.0878 C.ar    1  UNL1        0.0000
     46 C           2.9066    0.6651   14.4166 C.ar    1  UNL1        0.0000
     47 H           3.7519    0.0206   14.5968 H       1  UNL1        0.0000
     48 C           2.4127   -1.5356   16.1643 C.3     1  UNL1        0.0000
     49 H           3.2983   -1.2029   16.7245 H       1  UNL1        0.0000
     50 H           2.7179   -1.9212   15.1854 H       1  UNL1        0.0000
     51 C           1.6936   -2.6511   16.9175 C.3     1  UNL1        0.0000
     52 H           2.4302   -3.3528   17.3421 H       1  UNL1        0.0000
     53 H           1.1217   -2.2013   17.7375 H       1  UNL1        0.0000
     54 C          -0.0907   -4.1866   16.5588 C.3     1  UNL1        0.0000
     55 H           0.3834   -4.8539   17.2940 H       1  UNL1        0.0000
     56 H          -0.4597   -4.7744   15.7161 H       1  UNL1        0.0000
     57 C          -1.2853   -3.4897   17.2181 C.3     1  UNL1        0.0000
     58 H          -1.8816   -4.2436   17.7583 H       1  UNL1        0.0000
     59 H          -0.9430   -2.7439   17.9531 H       1  UNL1        0.0000
     60 C          -3.1148   -2.0997   16.7415 C.3     1  UNL1        0.0000
     61 H          -2.7367   -1.4009   17.5045 H       1  UNL1        0.0000
     62 H          -3.8660   -2.7476   17.2227 H       1  UNL1        0.0000
     63 C          -3.7839   -1.3353   15.5946 C.3     1  UNL1        0.0000
     64 H          -3.9822   -2.0381   14.7832 H       1  UNL1        0.0000
     65 H          -4.7328   -0.9106   15.9544 H       1  UNL1        0.0000
     66 C          -2.8411    0.8423   15.7752 C.3     1  UNL1        0.0000
     67 H          -2.5666    0.6281   16.8149 H       1  UNL1        0.0000
     68 H          -3.7810    1.4176   15.7681 H       1  UNL1        0.0000
     69 C          -1.7246    1.6664   15.1411 C.3     1  UNL1        0.0000
     70 H          -1.8439    1.6300   14.0530 H       1  UNL1        0.0000
     71 H          -1.7766    2.7073   15.4882 H       1  UNL1        0.0000
     72 C           4.5180    5.3151   13.0792 C.3     1  UNL1        0.0000
     73 H           5.1009    5.2903   12.1679 H       1  UNL1        0.0000
     74 C           3.6179    6.3363   13.3061 C.2     1  UNL1        0.0000
     75 H           3.4944    7.1148   12.5720 H       1  UNL1        0.0000
     76 C           2.8836    6.3396   14.4918 C.2     1  UNL1        0.0000
     77 H           2.1708    7.1253   14.6879 H       1  UNL1        0.0000
     78 C           3.0806    5.3295   15.4025 C.2     1  UNL1        0.0000
     79 H           2.5432    5.2724   16.3337 H       1  UNL1        0.0000
     80 C           4.0119    4.3226   15.1114 C.2     1  UNL1        0.0000
     81 C           5.4872    1.3763   16.1729 C.ar    1  UNL1        0.0000
     82 C           5.0980    0.9868   17.4720 C.ar    1  UNL1        0.0000
     83 H           4.3807    1.5958   17.9986 H       1  UNL1        0.0000
     84 C           5.6362   -0.1473   18.0072 C.ar    1  UNL1        0.0000
     85 H           5.3563   -0.4697   18.9976 H       1  UNL1        0.0000
     86 C           6.5610   -0.9202   17.2691 C.ar    1  UNL1        0.0000
     87 H           6.9572   -1.8188   17.7173 H       1  UNL1        0.0000
     88 C           6.9560   -0.5693   16.0100 C.ar    1  UNL1        0.0000
     89 H           7.6453   -1.1801   15.4484 H       1  UNL1        0.0000
     90 C           6.4209    0.5989   15.4115 C.ar    1  UNL1        0.0000
     91 C           7.7034    0.5575   13.4063 C.ar    1  UNL1        0.0000
     92 C           7.4766    0.1379   12.0891 C.ar    1  UNL1        0.0000
     93 H           6.4603    0.0915   11.7324 H       1  UNL1        0.0000
     94 C           8.5288   -0.2227   11.2726 C.ar    1  UNL1        0.0000
     95 C           9.8579   -0.1697   11.7772 C.ar    1  UNL1        0.0000
     96 C          10.0670    0.2360   13.0875 C.ar    1  UNL1        0.0000
     97 H          11.0670    0.2886   13.4868 H       1  UNL1        0.0000
     98 C           9.0042    0.5952   13.8986 C.ar    1  UNL1        0.0000
     99 H           9.1864    0.9365   14.9074 H       1  UNL1        0.0000
    100 C          12.1277   -0.7754   11.3744 C.3     1  UNL1        0.0000
    101 H          12.0990   -1.3553   12.3031 H       1  UNL1        0.0000
    102 H          12.6669    0.1673   11.5390 H       1  UNL1        0.0000
    103 C          12.8337   -1.6087   10.3090 C.3     1  UNL1        0.0000
    104 H          12.6059   -1.1797    9.3261 H       1  UNL1        0.0000
    105 H          13.9238   -1.5734   10.4669 H       1  UNL1        0.0000
    106 C          12.7027   -3.7903    9.3662 C.3     1  UNL1        0.0000
    107 H          12.4800   -4.7923    9.7377 H       1  UNL1        0.0000
    108 H          13.7752   -3.7136    9.1330 H       1  UNL1        0.0000
    109 C          11.8975   -3.5627    8.0828 C.3     1  UNL1        0.0000
    110 H          11.9496   -2.5063    7.7747 H       1  UNL1        0.0000
    111 H          12.3380   -4.1698    7.2746 H       1  UNL1        0.0000
    112 C           9.7105   -3.6238    7.2354 C.3     1  UNL1        0.0000
    113 H           9.9737   -4.2202    6.3461 H       1  UNL1        0.0000
    114 H           9.8119   -2.5599    6.9676 H       1  UNL1        0.0000
    115 C           8.2664   -3.9451    7.6337 C.3     1  UNL1        0.0000
    116 H           7.6333   -3.9149    6.7344 H       1  UNL1        0.0000
    117 H           8.2448   -4.9488    8.0626 H       1  UNL1        0.0000
    118 C           7.3832   -1.8157    8.2288 C.3     1  UNL1        0.0000
    119 H           6.4649   -1.8437    7.6195 H       1  UNL1        0.0000
    120 H           8.1794   -1.3397    7.6446 H       1  UNL1        0.0000
    121 C           7.1469   -0.9846    9.4866 C.3     1  UNL1        0.0000
    122 H           6.5608   -0.0856    9.2476 H       1  UNL1        0.0000
    123 H           6.6010   -1.6002   10.2099 H       1  UNL1        0.0000
@<TRIPOS>BOND
     1   113   112    1
     2   116   115    1
     3   114   112    1
     4   112   115    1
     5   112     5    1
     6   111   109    1
     7   119   118    1
     8   115   117    1
     9   115     6    1
    10   120   118    1
    11   110   109    1
    12    33    32    1
    13   109     5    1
    14   109   106    1
    15   118     6    1
    16   118   121    1
    17    35    34    1
    18    32    34   ar
    19    32    30   ar
    20   108   106    1
    21   122   121    1
    22    34    36   ar
    23   104   103    1
    24   106   107    1
    25   106     4    1
    26   121     7    1
    27   121   123    1
    28    31    30    1
    29    30    29   ar
    30     7    94    1
    31   103     4    1
    32   103   105    1
    33   103   100    1
    34    36    37    1
    35    36    38   ar
    36     2   100    1
    37     2    95    1
    38    29    38   ar
    39    29    14    1
    40    94    95   ar
    41    94    92   ar
    42   100   102    1
    43   100   101    1
    44    38    15    1
    45    93    92    1
    46    95    96   ar
    47    13    14    1
    48    13    28    1
    49    92    91   ar
    50    73    72    1
    51    14     1    1
    52    27    26    1
    53    41    40    1
    54    75    74    1
    55    15    39    1
    56    15     1    1
    57    72    74    1
    58    72    16    1
    59    96    97    1
    60    96    98   ar
    61    40    39   ar
    62    40    42   ar
    63    28    26    2
    64    28    12    1
    65    74    76    2
    66    26    24    1
    67    91    98   ar
    68    91    19    1
    69    39    46   ar
    70    43    42    1
    71     1    16    1
    72     1    19    1
    73     1    12    1
    74     1    18    1
    75    42    44   ar
    76    98    99    1
    77    16    80    1
    78    70    69    1
    79    19    90    1
    80    12    20    1
    81    46    47    1
    82    46    45   ar
    83    76    77    1
    84    76    78    1
    85    24    25    1
    86    24    22    2
    87    64    63    1
    88    44    45   ar
    89    44     3    1
    90    11    63    1
    91    11    66    1
    92    45     8    1
    93    80    78    2
    94    80    17    1
    95    69    71    1
    96    69     3    1
    97    69    66    1
    98    50    48    1
    99    78    79    1
   100    90    88   ar
   101    90    81   ar
   102    89    88    1
   103    18    17    1
   104    18    81    1
   105    20    22    1
   106    20    21    1
   107    63    65    1
   108    63    60    1
   109    56    54    1
   110    22    23    1
   111    68    66    1
   112    66    67    1
   113     9    54    1
   114     9    51    1
   115    88    86   ar
   116     8    48    1
   117    48    49    1
   118    48    51    1
   119    81    82   ar
   120    10    60    1
   121    10    57    1
   122    54    57    1
   123    54    55    1
   124    60    62    1
   125    60    61    1
   126    51    52    1
   127    51    53    1
   128    57    58    1
   129    57    59    1
   130    86    87    1
   131    86    84   ar
   132    82    83    1
   133    82    84   ar
   134    84    85    1
