@<TRIPOS>MOLECULE
CSD_code = LOMQOT | q = 0 | S = 0 | Stoichiometry = C6H13CoN4O5 | MND = 6
 29 32 0 0 0
SMALL
GASTEIGER

@<TRIPOS>ATOM
      1 CO         -0.7606    2.5548    3.1630 Co.oh   1  UNL1        0.0000
      2 O          -2.1947    1.4980    2.9022 O.3     1  UNL1        0.0000
      3 N           0.5756    1.1441    3.7011 N.4     1  UNL1        0.0000
      4 H           0.0563    0.2854    3.5125 H       1  UNL1        0.0000
      5 H           1.4447    1.0700    3.1742 H       1  UNL1        0.0000
      6 N          -1.1757    2.5548    5.2798 N.4     1  UNL1        0.0000
      7 H          -2.1720    2.5548    5.4841 H       1  UNL1        0.0000
      8 O          -4.1852    2.5548    2.9141 O.2     1  UNL1        0.0000
      9 N          -0.2376    2.5547    1.5221 N.pl3   1  UNL1        0.0000
     10 O          -0.0056    1.4743    1.0308 O.2     1  UNL1        0.0000
     11 C          -2.9838    2.5548    2.8846 C.2     1  UNL1        0.0000
     12 C          -0.5369    1.3595    5.8121 C.3     1  UNL1        0.0000
     13 H          -1.1358    0.4858    5.5493 H       1  UNL1        0.0000
     14 H          -0.4264    1.4024    6.9053 H       1  UNL1        0.0000
     15 C           1.6334    2.5548    5.4209 C.3     1  UNL1        0.0000
     16 H           1.9259    2.5548    6.4721 H       1  UNL1        0.0000
     17 H           2.5479    2.5548    4.8234 H       1  UNL1        0.0000
     18 C           0.8330    1.2743    5.1368 C.3     1  UNL1        0.0000
     19 H           1.3960    0.4123    5.5245 H       1  UNL1        0.0000
     20 O          -2.1947    3.6116    2.9022 O.3     1  UNL1        0.0000
     21 N           0.5756    3.9655    3.7012 N.4     1  UNL1        0.0000
     22 H           0.0563    4.8242    3.5125 H       1  UNL1        0.0000
     23 H           1.4446    4.0396    3.1742 H       1  UNL1        0.0000
     24 C           0.8330    3.8353    5.1369 C.3     1  UNL1        0.0000
     25 C          -0.5369    3.7500    5.8121 C.3     1  UNL1        0.0000
     26 H          -1.1358    4.6238    5.5494 H       1  UNL1        0.0000
     27 H          -0.4264    3.7071    6.9053 H       1  UNL1        0.0000
     28 H           1.3960    4.6973    5.5245 H       1  UNL1        0.0000
     29 O          -0.0056    3.6350    1.0307 O.2     1  UNL1        0.0000
@<TRIPOS>BOND
     1    29     9    2
     2    10     9    2
     3     9     1    1
     4    11     2    1
     5    11    20    1
     6    11     8    2
     7     2     1    1
     8    20     1    1
     9     1     3    1
    10     1    21    1
    11     1     6    1
    12     5     3    1
    13    23    21    1
    14     4     3    1
    15    22    21    1
    16     3    18    1
    17    21    24    1
    18    17    15    1
    19    18    15    1
    20    18    19    1
    21    18    12    1
    22    24    15    1
    23    24    28    1
    24    24    25    1
    25     6     7    1
    26     6    12    1
    27     6    25    1
    28    15    16    1
    29    13    12    1
    30    26    25    1
    31    12    14    1
    32    25    27    1
