@<TRIPOS>MOLECULE
CSD_code = OPUSUP | q = 1 | S = 0 | Stoichiometry = C24H37ClCoN4O(1+) | MND = 5
 68 71 0 0 0
SMALL
GASTEIGER

@<TRIPOS>ATOM
      1 CO          2.3945   10.2746   15.3127 Co.oh   1  UNL1        0.0000
      2 CL          3.1332   12.2370   15.4860 Cl      1  UNL1        0.0000
      3 N           1.8961   10.2239   17.2638 N.4     1  UNL1        0.0000
      4 H           1.3484   11.0814   17.3826 H       1  UNL1        0.0000
      5 N           0.9871    8.8616   15.0770 N.4     1  UNL1        0.0000
      6 H           1.4138    7.9331   15.0594 H       1  UNL1        0.0000
      7 N           2.3012   10.4765   13.3140 N.4     1  UNL1        0.0000
      8 H           1.7577   11.3398   13.2123 H       1  UNL1        0.0000
      9 C           2.5391   12.0944   10.6748 C.ar    1  UNL1        0.0000
     10 C           1.4890    9.3674   12.7818 C.3     1  UNL1        0.0000
     11 H           2.1328    8.4867   12.6979 H       1  UNL1        0.0000
     12 H           1.1016    9.6050   11.7858 H       1  UNL1        0.0000
     13 C           2.9620   10.2931   18.2840 C.3     1  UNL1        0.0000
     14 H           3.5654   11.1773   18.0682 H       1  UNL1        0.0000
     15 H           3.5980    9.4190   18.1606 H       1  UNL1        0.0000
     16 C           0.3585    9.0858   13.7661 C.3     1  UNL1        0.0000
     17 H          -0.3010    9.9564   13.8391 H       1  UNL1        0.0000
     18 H          -0.2400    8.2269   13.4448 H       1  UNL1        0.0000
     19 C           0.9970    9.0770   17.4754 C.3     1  UNL1        0.0000
     20 H           0.4028    9.2024   18.3864 H       1  UNL1        0.0000
     21 H           1.6128    8.1807   17.5897 H       1  UNL1        0.0000
     22 C           1.3416   10.5096   22.2763 C.ar    1  UNL1        0.0000
     23 C           3.2295   10.9401   11.0585 C.ar    1  UNL1        0.0000
     24 C           1.1481   11.5401   21.3709 C.ar    1  UNL1        0.0000
     25 H           0.5825   12.4098   21.6720 H       1  UNL1        0.0000
     26 C           0.1009    8.9294   16.2487 C.3     1  UNL1        0.0000
     27 H          -0.5384    8.0441   16.3322 H       1  UNL1        0.0000
     28 H          -0.5425    9.8091   16.1476 H       1  UNL1        0.0000
     29 C           4.4429    8.7973   10.4281 C.3     1  UNL1        0.0000
     30 H           4.6671    8.2382    9.5243 H       1  UNL1        0.0000
     31 H           3.9016    8.1357   11.1031 H       1  UNL1        0.0000
     32 H           5.3886    9.0661   10.8967 H       1  UNL1        0.0000
     33 C           2.6284    9.3268   20.5958 C.ar    1  UNL1        0.0000
     34 C           1.6705   11.4897   20.0855 C.ar    1  UNL1        0.0000
     35 C           2.0927    9.4150   21.8710 C.ar    1  UNL1        0.0000
     36 H           2.2688    8.6129   22.5723 H       1  UNL1        0.0000
     37 N           3.7631    9.2509   15.5575 N.2     1  UNL1        0.0000
     38 C           2.6475   11.4001    8.3564 C.ar    1  UNL1        0.0000
     39 C           2.4052   10.3684   19.6867 C.ar    1  UNL1        0.0000
     40 C           3.5285   10.6923   12.5186 C.3     1  UNL1        0.0000
     41 H           4.1647    9.8155   12.6363 H       1  UNL1        0.0000
     42 H           4.0535   11.5496   12.9477 H       1  UNL1        0.0000
     43 C           2.2566   12.3031    9.3315 C.ar    1  UNL1        0.0000
     44 H           1.7241   13.1973    9.0423 H       1  UNL1        0.0000
     45 C           3.3508   10.2712    8.7536 C.ar    1  UNL1        0.0000
     46 H           3.6788    9.5679    8.0027 H       1  UNL1        0.0000
     47 C           3.6499   10.0257   10.0846 C.ar    1  UNL1        0.0000
     48 C           0.7913   10.5849   23.6642 C.3     1  UNL1        0.0000
     49 H           1.5622   10.9446   24.3457 H       1  UNL1        0.0000
     50 H           0.4742    9.6037   24.0097 H       1  UNL1        0.0000
     51 H          -0.0507   11.2701   23.7156 H       1  UNL1        0.0000
     52 C           2.0785   13.1353   11.6584 C.3     1  UNL1        0.0000
     53 H           1.0565   12.9360   11.9908 H       1  UNL1        0.0000
     54 H           2.0629   14.1086   11.1735 H       1  UNL1        0.0000
     55 H           2.7290   13.2123   12.5267 H       1  UNL1        0.0000
     56 C           3.4576    8.1237   20.2469 C.3     1  UNL1        0.0000
     57 H           3.0307    7.5605   19.4179 H       1  UNL1        0.0000
     58 H           3.5192    7.4579   21.1028 H       1  UNL1        0.0000
     59 H           4.4715    8.4168   19.9790 H       1  UNL1        0.0000
     60 C           2.3549   11.6464    6.9112 C.3     1  UNL1        0.0000
     61 H           2.1356   10.7144    6.3955 H       1  UNL1        0.0000
     62 H           3.2248   12.0953    6.4319 H       1  UNL1        0.0000
     63 H           1.5153   12.3260    6.7914 H       1  UNL1        0.0000
     64 C           1.4132   12.6611   19.1775 C.3     1  UNL1        0.0000
     65 H           0.4689   12.5419   18.6403 H       1  UNL1        0.0000
     66 H           2.2151   12.8220   18.4607 H       1  UNL1        0.0000
     67 H           1.3190   13.5660   19.7732 H       1  UNL1        0.0000
     68 O           4.1263    8.6357   14.6220 O.2     1  UNL1        0.0000
@<TRIPOS>BOND
     1    61    60    1
     2    62    60    1
     3    63    60    1
     4    60    38    1
     5    46    45    1
     6    38    45   ar
     7    38    43   ar
     8    45    47   ar
     9    44    43    1
    10    43     9   ar
    11    30    29    1
    12    47    29    1
    13    47    23   ar
    14    29    32    1
    15    29    31    1
    16     9    23   ar
    17     9    52    1
    18    23    40    1
    19    54    52    1
    20    52    53    1
    21    52    55    1
    22    12    10    1
    23    40    41    1
    24    40    42    1
    25    40     7    1
    26    11    10    1
    27    10     7    1
    28    10    16    1
    29     8     7    1
    30     7     1    1
    31    18    16    1
    32    16    17    1
    33    16     5    1
    34    68    37    2
    35     6     5    1
    36     5     1    1
    37     5    26    1
    38     1     2    1
    39     1    37    1
    40     1     3    1
    41    28    26    1
    42    26    27    1
    43    26    19    1
    44     3     4    1
    45     3    19    1
    46     3    13    1
    47    19    21    1
    48    19    20    1
    49    14    13    1
    50    15    13    1
    51    13    39    1
    52    66    64    1
    53    65    64    1
    54    64    67    1
    55    64    34    1
    56    57    56    1
    57    39    34   ar
    58    39    33   ar
    59    59    56    1
    60    34    24   ar
    61    56    33    1
    62    56    58    1
    63    33    35   ar
    64    24    25    1
    65    24    22   ar
    66    35    22   ar
    67    35    36    1
    68    22    48    1
    69    48    51    1
    70    48    50    1
    71    48    49    1
