@<TRIPOS>MOLECULE
CSD_code = PIJCER | q = 0 | S = 0 | Stoichiometry = C30H33CoN6S3 | MND = 6
 73 78 0 0 0
SMALL
GASTEIGER

@<TRIPOS>ATOM
      1 CO          7.3719    4.2561    4.0330 Co.oh   1  UNL1        0.0000
      2 S           9.3611    6.4304    0.6749 S.2     1  UNL1        0.0000
      3 N           8.3753    5.3978    3.0195 N.2     1  UNL1        0.0000
      4 N           6.9055    5.8151    5.3446 N.4     1  UNL1        0.0000
      5 C           8.7359    5.7622    1.9514 C.1     1  UNL1        0.0000
      6 C           8.2116    6.1729    5.9148 C.3     1  UNL1        0.0000
      7 H           8.1001    6.8734    6.7538 H       1  UNL1        0.0000
      8 H           8.7840    6.6586    5.1226 H       1  UNL1        0.0000
      9 C           5.9847    5.3092    6.3790 C.3     1  UNL1        0.0000
     10 H           5.2209    6.0556    6.6123 H       1  UNL1        0.0000
     11 H           6.5344    5.1332    7.3058 H       1  UNL1        0.0000
     12 C           6.3112    6.9801    4.6412 C.3     1  UNL1        0.0000
     13 H           6.9908    7.2498    3.8303 H       1  UNL1        0.0000
     14 H           5.3781    6.6407    4.1881 H       1  UNL1        0.0000
     15 C           6.0478    8.1826    5.5104 C.ar    1  UNL1        0.0000
     16 C           4.7834    8.4048    6.0468 C.ar    1  UNL1        0.0000
     17 H           3.9708    7.7323    5.8069 H       1  UNL1        0.0000
     18 C           4.5381    9.5016    6.8552 C.ar    1  UNL1        0.0000
     19 H           3.5497    9.6589    7.2606 H       1  UNL1        0.0000
     20 C           5.5535   10.3998    7.1328 C.ar    1  UNL1        0.0000
     21 H           5.3636   11.2560    7.7621 H       1  UNL1        0.0000
     22 C           6.8079   10.2073    6.5788 C.ar    1  UNL1        0.0000
     23 H           7.5976   10.9189    6.7685 H       1  UNL1        0.0000
     24 C           7.0510    9.1106    5.7712 C.ar    1  UNL1        0.0000
     25 H           8.0244    8.9883    5.3197 H       1  UNL1        0.0000
     26 S           4.4954    4.8933    0.6746 S.2     1  UNL1        0.0000
     27 S           8.2604    1.4414    0.6785 S.2     1  UNL1        0.0000
     28 N           5.8809    4.5535    3.0200 N.2     1  UNL1        0.0000
     29 N           7.8597    2.8158    3.0207 N.2     1  UNL1        0.0000
     30 N           8.9549    3.8818    5.3456 N.4     1  UNL1        0.0000
     31 N           6.2560    3.0735    5.3465 N.4     1  UNL1        0.0000
     32 C           5.3850    4.6847    1.9521 C.1     1  UNL1        0.0000
     33 C           7.9948    2.3184    1.9542 C.1     1  UNL1        0.0000
     34 C           5.2934    4.0261    5.9167 C.3     1  UNL1        0.0000
     35 C           8.6117    2.5723    5.9170 C.3     1  UNL1        0.0000
     36 H           4.7434    3.5800    6.7565 H       1  UNL1        0.0000
     37 H           9.2738    2.3196    6.7565 H       1  UNL1        0.0000
     38 H           4.5859    4.2782    5.1248 H       1  UNL1        0.0000
     39 H           8.7465    1.8329    5.1257 H       1  UNL1        0.0000
     40 C           8.9769    4.9332    6.3789 C.3     1  UNL1        0.0000
     41 C           7.1552    2.5296    6.3806 C.3     1  UNL1        0.0000
     42 H           6.8908    1.4951    6.6148 H       1  UNL1        0.0000
     43 H          10.0051    5.2216    6.6124 H       1  UNL1        0.0000
     44 H           7.0336    3.0944    7.3071 H       1  UNL1        0.0000
     45 H           8.5491    4.5462    7.3059 H       1  UNL1        0.0000
     46 C          10.2609    3.8133    4.6423 C.3     1  UNL1        0.0000
     47 C           5.5441    1.9761    4.6439 C.3     1  UNL1        0.0000
     48 H          10.1545    3.0897    3.8318 H       1  UNL1        0.0000
     49 H           4.9709    2.4294    3.8327 H       1  UNL1        0.0000
     50 H          10.4339    4.7909    4.1889 H       1  UNL1        0.0000
     51 H           6.3045    1.3373    4.1912 H       1  UNL1        0.0000
     52 C          11.4343    3.4401    5.5114 C.ar    1  UNL1        0.0000
     53 C           4.6339    1.1467    5.5127 C.ar    1  UNL1        0.0000
     54 C          12.2589    4.4238    6.0480 C.ar    1  UNL1        0.0000
     55 C           5.0727   -0.0604    6.0476 C.ar    1  UNL1        0.0000
     56 H          12.0822    5.4640    5.8093 H       1  UNL1        0.0000
     57 H           6.0618   -0.4274    5.8087 H       1  UNL1        0.0000
     58 C          13.3324    4.0875    6.8550 C.ar    1  UNL1        0.0000
     59 C           4.2439   -0.8230    6.8527 C.ar    1  UNL1        0.0000
     60 H          13.9627    4.8648    7.2606 H       1  UNL1        0.0000
     61 H           4.6011   -1.7586    7.2565 H       1  UNL1        0.0000
     62 C          13.6035    2.7589    7.1307 C.ar    1  UNL1        0.0000
     63 C           2.9579   -0.3932    7.1289 C.ar    1  UNL1        0.0000
     64 H          14.4410    2.4949    7.7586 H       1  UNL1        0.0000
     65 H           2.3099   -0.9875    7.7552 H       1  UNL1        0.0000
     66 C          12.8095    1.7690    6.5767 C.ar    1  UNL1        0.0000
     67 C           2.4987    0.7909    6.5773 C.ar    1  UNL1        0.0000
     68 H          13.0317    0.7292    6.7650 H       1  UNL1        0.0000
     69 H           1.4874    1.1189    6.7662 H       1  UNL1        0.0000
     70 C          11.7371    2.1072    5.7707 C.ar    1  UNL1        0.0000
     71 C           3.3284    1.5514    5.7728 C.ar    1  UNL1        0.0000
     72 H          11.1442    1.3255    5.3192 H       1  UNL1        0.0000
     73 H           2.9485    2.4568    5.3229 H       1  UNL1        0.0000
@<TRIPOS>BOND
     1    26    32    2
     2     2     5    2
     3    27    33    2
     4     5     3    2
     5    32    28    2
     6    33    29    2
     7     3     1    1
     8    28     1    1
     9    29     1    1
    10    13    12    1
    11    48    46    1
    12    49    47    1
    13     1     4    1
    14     1    30    1
    15     1    31    1
    16    14    12    1
    17    50    46    1
    18    51    47    1
    19    12     4    1
    20    12    15    1
    21    46    30    1
    22    46    52    1
    23    47    31    1
    24    47    53    1
    25     8     6    1
    26    38    34    1
    27    39    35    1
    28    72    70    1
    29    25    24    1
    30    73    71    1
    31     4     6    1
    32     4     9    1
    33    30    35    1
    34    30    40    1
    35    31    34    1
    36    31    41    1
    37    15    24   ar
    38    15    16   ar
    39    52    70   ar
    40    52    54   ar
    41    53    71   ar
    42    53    55   ar
    43    70    66   ar
    44    24    22   ar
    45    71    67   ar
    46    17    16    1
    47    57    55    1
    48    56    54    1
    49     6    40    1
    50     6     7    1
    51    34     9    1
    52    34    36    1
    53    35    41    1
    54    35    37    1
    55    16    18   ar
    56    55    59   ar
    57    54    58   ar
    58    40    43    1
    59    40    45    1
    60     9    10    1
    61     9    11    1
    62    41    42    1
    63    41    44    1
    64    66    68    1
    65    66    62   ar
    66    67    69    1
    67    67    63   ar
    68    22    23    1
    69    22    20   ar
    70    59    63   ar
    71    59    61    1
    72    58    62   ar
    73    58    60    1
    74    18    20   ar
    75    18    19    1
    76    63    65    1
    77    62    64    1
    78    20    21    1
