@<TRIPOS>MOLECULE
CSD_code = QADPOA | q = 1 | S = 0 | Stoichiometry = C6H16CoN4O4(1+) | MND = 6
 31 30 0 0 0
SMALL
GASTEIGER

@<TRIPOS>ATOM
      1 CO          3.9482    9.1486    4.9380 Co.oh   1  UNL1        0.0000
      2 O           2.4854    7.2793    3.9700 O.2     1  UNL1        0.0000
      3 O           2.3557    9.9938    5.3848 O.3     1  UNL1        0.0000
      4 O           0.2565    6.8306    4.2439 O.2     1  UNL1        0.0000
      5 O           0.5308   11.2507    5.9999 O.3     1  UNL1        0.0000
      6 N           3.9930    9.8244    2.9664 N.4     1  UNL1        0.0000
      7 N           5.5554    8.2386    4.4532 N.4     1  UNL1        0.0000
      8 N           4.0710    7.9911    6.6722 N.4     1  UNL1        0.0000
      9 N           5.1343   11.0991    5.8974 N.3     2  UNL2        0.0000
     10 C           5.2839    9.4287    2.3859 C.3     1  UNL1        0.0000
     11 C           5.6597    8.0853    3.0015 C.3     1  UNL1        0.0000
     12 C           5.7034    6.9915    5.2043 C.3     1  UNL1        0.0000
     13 C           5.3724    7.3072    6.6592 C.3     1  UNL1        0.0000
     14 C           1.3672    7.0494    4.1013 C.1     1  UNL1        0.0000
     15 C           1.4447   10.6273    5.6944 C.3     1  UNL1        0.0000
     16 H           3.8174   10.8113    2.7974 H       1  UNL1        0.0000
     17 H           3.2514    9.3076    2.4972 H       1  UNL1        0.0000
     18 H           5.2474    9.3585    1.2932 H       1  UNL1        0.0000
     19 H           6.0312   10.1778    2.6582 H       1  UNL1        0.0000
     20 H           6.6631    7.7715    2.6908 H       1  UNL1        0.0000
     21 H           4.9412    7.3254    2.6868 H       1  UNL1        0.0000
     22 H           6.2996    8.8717    4.7523 H       1  UNL1        0.0000
     23 H           4.9830    6.2702    4.8123 H       1  UNL1        0.0000
     24 H           6.7105    6.5689    5.1087 H       1  UNL1        0.0000
     25 H           5.3711    6.3939    7.2643 H       1  UNL1        0.0000
     26 H           6.1249    7.9875    7.0646 H       1  UNL1        0.0000
     27 H           3.3318    7.2943    6.6011 H       1  UNL1        0.0000
     28 H           3.9354    8.4724    7.5573 H       1  UNL1        0.0000
     29 H           5.8011   10.8670    6.6245 H       2  UNL2        0.0000
     30 H           5.6290   11.6442    5.2007 H       2  UNL2        0.0000
     31 H           4.4489   11.7166    6.3173 H       2  UNL2        0.0000
@<TRIPOS>BOND
     1    18    10    1
     2    10    19    1
     3    10     6    1
     4    10    11    1
     5    17     6    1
     6    21    11    1
     7    20    11    1
     8    16     6    1
     9     6     1    1
    10    11     7    1
    11     2    14    2
    12    14     4    2
    13     7    22    1
    14     7     1    1
    15     7    12    1
    16    23    12    1
    17     1     3    1
    18     1     8    1
    19    24    12    1
    20    30     9    1
    21    12    13    1
    22     3    15    1
    23    15     5    1
    24     9    31    1
    25     9    29    1
    26    27     8    1
    27    13     8    1
    28    13    26    1
    29    13    25    1
    30     8    28    1
