@<TRIPOS>MOLECULE
CSD_code = QERZOC | q = 0 | S = 0 | Stoichiometry = C7H19CoN6O6 | MND = 6
 39 40 0 0 0
SMALL
GASTEIGER

@<TRIPOS>ATOM
      1 CO          2.3327    1.1882    7.5145 Co.oh   1  UNL1        0.0000
      2 N           2.5585    1.4784    9.5330 N.4     1  UNL1        0.0000
      3 H           2.7514    2.4726    9.6801 H       1  UNL1        0.0000
      4 H           1.5959    1.3190    9.8666 H       1  UNL1        0.0000
      5 N           2.8968   -1.0696    7.7148 N.4     1  UNL1        0.0000
      6 N           2.1210    0.8489    5.4859 N.4     1  UNL1        0.0000
      7 H           1.1673    0.4695    5.4171 H       1  UNL1        0.0000
      8 H           2.0745    1.7780    5.0611 H       1  UNL1        0.0000
      9 N           0.5194    0.6890    7.8154 N.pl3   1  UNL1        0.0000
     10 N           1.7520    2.8782    7.3253 N.pl3   1  UNL1        0.0000
     11 N           4.0467    1.6820    7.1906 N.pl3   1  UNL1        0.0000
     12 C           3.4631    0.7022   10.3811 C.3     1  UNL1        0.0000
     13 H           3.3290    0.9966   11.4294 H       1  UNL1        0.0000
     14 H           4.4936    0.9180   10.0903 H       1  UNL1        0.0000
     15 C           3.1898   -0.7888   10.2345 C.3     1  UNL1        0.0000
     16 H           3.7035   -1.3170   11.0388 H       1  UNL1        0.0000
     17 H           2.1210   -0.9719   10.3499 H       1  UNL1        0.0000
     18 C           3.7175   -1.3436    8.9139 C.3     1  UNL1        0.0000
     19 H           3.8330   -2.4334    9.0111 H       1  UNL1        0.0000
     20 H           4.7059   -0.9129    8.7488 H       1  UNL1        0.0000
     21 C           3.7257   -1.5135    6.5732 C.3     1  UNL1        0.0000
     22 H           3.9923   -2.5702    6.7319 H       1  UNL1        0.0000
     23 H           4.6519   -0.9351    6.5847 H       1  UNL1        0.0000
     24 C           3.1017   -1.3959    5.1846 C.3     1  UNL1        0.0000
     25 H           2.1070   -1.8409    5.1620 H       1  UNL1        0.0000
     26 H           3.7303   -1.9679    4.5000 H       1  UNL1        0.0000
     27 C           3.0291    0.0370    4.6753 C.3     1  UNL1        0.0000
     28 H           4.0228    0.4924    4.6963 H       1  UNL1        0.0000
     29 H           2.6899    0.0252    3.6316 H       1  UNL1        0.0000
     30 C           1.7111   -1.9333    7.7861 C.3     1  UNL1        0.0000
     31 H           1.1470   -1.7321    8.6929 H       1  UNL1        0.0000
     32 H           2.0057   -2.9903    7.7935 H       1  UNL1        0.0000
     33 H           1.0470   -1.7646    6.9435 H       1  UNL1        0.0000
     34 O          -0.1533    0.2995    6.8616 O.2     1  UNL1        0.0000
     35 O           0.0454    0.7285    8.9553 O.2     1  UNL1        0.0000
     36 O           1.0585    3.0994    6.3651 O.2     1  UNL1        0.0000
     37 O           2.0844    3.6811    8.1642 O.2     1  UNL1        0.0000
     38 O           4.2138    2.5157    6.3105 O.2     1  UNL1        0.0000
     39 O           4.9694    1.1647    7.8026 O.2     1  UNL1        0.0000
@<TRIPOS>BOND
     1    29    27    1
     2    26    24    1
     3    27    28    1
     4    27    24    1
     5    27     6    1
     6     8     6    1
     7    25    24    1
     8    24    21    1
     9     7     6    1
    10     6     1    1
    11    38    11    2
    12    36    10    2
    13    21    23    1
    14    21    22    1
    15    21     5    1
    16    34     9    2
    17    33    30    1
    18    11     1    1
    19    11    39    2
    20    10     1    1
    21    10    37    2
    22     1     5    1
    23     1     9    1
    24     1     2    1
    25     5    30    1
    26     5    18    1
    27    30    32    1
    28    30    31    1
    29     9    35    2
    30    20    18    1
    31    18    19    1
    32    18    15    1
    33     2     3    1
    34     2     4    1
    35     2    12    1
    36    14    12    1
    37    15    17    1
    38    15    12    1
    39    15    16    1
    40    12    13    1
