@<TRIPOS>MOLECULE
CSD_code = SICDOZ | q = 1 | S = 0 | Stoichiometry = C20H12CoN10(1+) | MND = 6
 43 48 0 0 0
SMALL
GASTEIGER

@<TRIPOS>ATOM
      1 CO          4.0420    3.4136    3.1471 Co.oh   1  UNL1        0.0000
      2 N           5.7695    3.1124    2.3260 N.pl3   1  UNL1        0.0000
      3 N           3.7582    1.6479    2.7370 N.pl3   1  UNL1        0.0000
      4 N           2.2884    3.3259    3.8771 N.pl3   1  UNL1        0.0000
      5 H           1.6998    4.0226    4.3232 H       1  UNL1        0.0000
      6 N          -0.6005    1.6093    4.6127 N.1     1  UNL1        0.0000
      7 N           1.9050   -1.2820    2.6982 N.1     1  UNL1        0.0000
      8 N           2.5475    6.6365   -0.6402 N.1     1  UNL1        0.0000
      9 N           3.3613    4.0626    1.4944 N.pl3   1  UNL1        0.0000
     10 H           2.9816    3.5895    0.6802 H       1  UNL1        0.0000
     11 N           4.2704    5.1919    3.5376 N.pl3   1  UNL1        0.0000
     12 N           4.7989    3.1425    4.9088 N.pl3   1  UNL1        0.0000
     13 C           5.0718    4.3311    5.5088 C.2     1  UNL1        0.0000
     14 C           5.6058    4.3888    6.7992 C.2     1  UNL1        0.0000
     15 H           5.8073    5.3504    7.2429 H       1  UNL1        0.0000
     16 C           5.8578    3.2136    7.4777 C.2     1  UNL1        0.0000
     17 H           6.2654    3.2318    8.4760 H       1  UNL1        0.0000
     18 C           5.5751    2.0047    6.8514 C.2     1  UNL1        0.0000
     19 H           5.7548    1.0643    7.3452 H       1  UNL1        0.0000
     20 C           5.0486    2.0181    5.5713 C.2     1  UNL1        0.0000
     21 H           4.8224    1.0865    5.0709 H       1  UNL1        0.0000
     22 C           4.7628    5.4761    4.7100 C.2     1  UNL1        0.0000
     23 H           4.9206    6.4906    5.0530 H       1  UNL1        0.0000
     24 C           3.8866    6.0529    2.5656 C.2     1  UNL1        0.0000
     25 C           4.0032    7.4497    2.6867 C.1     1  UNL1        0.0000
     26 C           2.9197    6.0896    0.2923 C.1     1  UNL1        0.0000
     27 C           3.3806    5.3785    1.4369 C.2     1  UNL1        0.0000
     28 C           6.7879    3.9456    2.1406 C.3     1  UNL1        0.0000
     29 H           6.6769    4.9554    2.5112 H       1  UNL1        0.0000
     30 C           7.9566    3.5686    1.5016 C.2     1  UNL1        0.0000
     31 H           8.7506    4.2852    1.3737 H       1  UNL1        0.0000
     32 C           8.0788    2.2656    1.0317 C.2     1  UNL1        0.0000
     33 H           8.9772    1.9465    0.5276 H       1  UNL1        0.0000
     34 C           7.0291    1.3894    1.2203 C.2     1  UNL1        0.0000
     35 H           7.0761    0.3700    0.8729 H       1  UNL1        0.0000
     36 C           5.8760    1.8358    1.8720 C.2     1  UNL1        0.0000
     37 C           4.7227    1.0273    2.1187 C.3     1  UNL1        0.0000
     38 H           4.6564   -0.0090    1.8130 H       1  UNL1        0.0000
     39 C           2.5536    1.1529    3.1077 C.2     1  UNL1        0.0000
     40 C           1.7584    2.1275    3.7422 C.2     1  UNL1        0.0000
     41 C           0.4508    1.8246    4.2180 C.1     1  UNL1        0.0000
     42 C           2.1714   -0.1830    2.8871 C.1     1  UNL1        0.0000
     43 N           4.1294    8.5814    2.8199 N.1     1  UNL1        0.0000
@<TRIPOS>BOND
     1     8    26    3
     2    26    27    1
     3    33    32    1
     4    10     9    1
     5    35    34    1
     6    32    34    1
     7    32    30    2
     8    34    36    2
     9    31    30    1
    10    27     9    1
    11    27    24    2
    12     9     1    1
    13    30    28    1
    14    38    37    1
    15    36    37    1
    16    36     2    1
    17    37     3    1
    18    28     2    1
    19    28    29    1
    20     2     1    1
    21    24    25    1
    22    24    11    1
    23    25    43    3
    24     7    42    3
    25     3    39    1
    26     3     1    1
    27    42    39    1
    28    39    40    2
    29     1    11    1
    30     1     4    1
    31     1    12    1
    32    11    22    1
    33    40     4    1
    34    40    41    1
    35     4     5    1
    36    41     6    3
    37    22    23    1
    38    22    13    2
    39    12    13    1
    40    12    20    1
    41    21    20    1
    42    13    14    1
    43    20    18    2
    44    14    15    1
    45    14    16    2
    46    18    19    1
    47    18    16    1
    48    16    17    1
