@<TRIPOS>MOLECULE
CSD_code = TODZIX | q = 0 | S = 0 | Stoichiometry = C14H17CoN12 | MND = 6
 44 47 0 0 0
SMALL
GASTEIGER

@<TRIPOS>ATOM
      1 CO          0.5772    5.7918    2.8243 Co.oh   1  UNL1        0.0000
      2 N           1.6799    5.5311    4.4147 N.pl3   1  UNL1        0.0000
      3 N           1.8339    7.5634    2.6225 N.4     1  UNL1        0.0000
      4 N           1.8877    4.6006    1.7091 N.pl3   1  UNL1        0.0000
      5 N          -0.5883    6.8604    3.7827 N.2     1  UNL1        0.0000
      6 N          -0.9851    6.7442    4.8799 N.2     1  UNL1        0.0000
      7 N          -1.4030    6.7927    5.9336 N.2     1  UNL1        0.0000
      8 N          -0.4766    4.3127    3.1811 N.2     1  UNL1        0.0000
      9 N          -1.5804    4.0321    2.8910 N.2     1  UNL1        0.0000
     10 N          -2.6049    3.5906    2.6992 N.2     1  UNL1        0.0000
     11 N          -0.2981    6.1432    1.2417 N.2     1  UNL1        0.0000
     12 N          -1.3617    6.5395    0.9433 N.2     1  UNL1        0.0000
     13 N          -2.3181    6.9345    0.4827 N.2     1  UNL1        0.0000
     14 C           2.6327    5.0773    0.7090 C.3     1  UNL1        0.0000
     15 C           2.4268    6.5773    4.7850 C.3     1  UNL1        0.0000
     16 C           2.7106    6.5605    0.5186 C.3     1  UNL1        0.0000
     17 H           1.7430    6.8982    0.1423 H       1  UNL1        0.0000
     18 H           3.4715    6.7919   -0.2273 H       1  UNL1        0.0000
     19 C           3.3384    4.2358   -0.1459 C.2     1  UNL1        0.0000
     20 H           3.9214    4.6617   -0.9479 H       1  UNL1        0.0000
     21 C           2.5196    2.3795    1.0806 C.2     1  UNL1        0.0000
     22 H           2.4377    1.3220    1.2723 H       1  UNL1        0.0000
     23 C           1.8458    3.2811    1.8830 C.2     1  UNL1        0.0000
     24 H           1.2225    2.9260    2.6897 H       1  UNL1        0.0000
     25 C           3.0318    7.2854    1.8275 C.3     1  UNL1        0.0000
     26 H           3.7098    6.6614    2.4195 H       1  UNL1        0.0000
     27 H           3.5515    8.2302    1.6050 H       1  UNL1        0.0000
     28 C           3.3542    5.3624    6.6256 C.2     1  UNL1        0.0000
     29 H           4.0084    5.2995    7.4812 H       1  UNL1        0.0000
     30 C           2.2241    7.8439    4.0066 C.3     1  UNL1        0.0000
     31 H           1.4028    8.3852    4.4895 H       1  UNL1        0.0000
     32 H           3.1186    8.4833    4.0501 H       1  UNL1        0.0000
     33 C           3.2807    2.8663    0.0310 C.2     1  UNL1        0.0000
     34 H           3.8144    2.1998   -0.6293 H       1  UNL1        0.0000
     35 C           1.7351    4.4229    5.1508 C.2     1  UNL1        0.0000
     36 H           1.0751    3.6229    4.8492 H       1  UNL1        0.0000
     37 C           3.2824    6.5241    5.8754 C.2     1  UNL1        0.0000
     38 H           3.8705    7.3906    6.1359 H       1  UNL1        0.0000
     39 C           2.5512    4.2938    6.2584 C.2     1  UNL1        0.0000
     40 H           2.5503    3.3760    6.8235 H       1  UNL1        0.0000
     41 C           1.1432    8.7347    2.0795 C.3     1  UNL1        0.0000
     42 H           1.7670    9.6323    2.1714 H       1  UNL1        0.0000
     43 H           0.2080    8.8823    2.6153 H       1  UNL1        0.0000
     44 H           0.9016    8.5801    1.0316 H       1  UNL1        0.0000
@<TRIPOS>BOND
     1    20    19    1
     2    34    33    1
     3    18    16    1
     4    19    33    2
     5    19    14    1
     6    33    21    1
     7    17    16    1
     8    13    12    2
     9    16    14    1
    10    16    25    1
    11    14     4    1
    12    12    11    2
    13    44    41    1
    14    21    22    1
    15    21    23    2
    16    11     1    1
    17    27    25    1
    18     4    23    1
    19     4     1    1
    20    25    26    1
    21    25     3    1
    22    23    24    1
    23    41    42    1
    24    41    43    1
    25    41     3    1
    26     3     1    1
    27     3    30    1
    28    10     9    2
    29     1     8    1
    30     1     5    1
    31     1     2    1
    32     9     8    2
    33     5     6    2
    34    30    32    1
    35    30    31    1
    36    30    15    1
    37     2    15    1
    38     2    35    1
    39    15    37    1
    40    36    35    1
    41     6     7    2
    42    35    39    2
    43    37    38    1
    44    37    28    2
    45    39    28    1
    46    39    40    1
    47    28    29    1
