@<TRIPOS>MOLECULE
CSD_code = TODZOD | q = 0 | S = 0 | Stoichiometry = C15H19CoN12 | MND = 6
 47 50 0 0 0
SMALL
GASTEIGER

@<TRIPOS>ATOM
      1 CO          1.3221    9.6750    5.8746 Co.oh   1  UNL1        0.0000
      2 N           1.7753    9.0488    3.9778 N.pl3   1  UNL1        0.0000
      3 N          -0.6588   10.3135    5.3146 N.4     1  UNL1        0.0000
      4 N           0.3286    7.9023    6.2895 N.pl3   1  UNL1        0.0000
      5 N           0.9024   10.2268    7.5883 N.2     1  UNL1        0.0000
      6 N           1.3518   11.0254    8.3224 N.2     1  UNL1        0.0000
      7 N           1.6308   11.7589    9.1393 N.2     1  UNL1        0.0000
      8 N           1.9695   11.3374    5.4173 N.2     1  UNL1        0.0000
      9 N           3.0480   11.7827    5.3064 N.2     1  UNL1        0.0000
     10 N           4.0131   12.3456    5.1119 N.2     1  UNL1        0.0000
     11 N           2.9870    9.1389    6.4734 N.2     1  UNL1        0.0000
     12 N           3.3818    8.8329    7.5347 N.2     1  UNL1        0.0000
     13 N           3.9075    8.4603    8.4678 N.2     1  UNL1        0.0000
     14 C          -0.5763    8.6856    3.3903 C.3     1  UNL1        0.0000
     15 H          -0.7972    7.8998    4.1132 H       1  UNL1        0.0000
     16 H          -1.1469    8.4675    2.4853 H       1  UNL1        0.0000
     17 C          -1.0232   10.0479    3.9232 C.3     1  UNL1        0.0000
     18 H          -0.5620   10.8213    3.3031 H       1  UNL1        0.0000
     19 H          -2.1166   10.1322    3.8080 H       1  UNL1        0.0000
     20 C           1.2746    8.3453    1.7560 C.2     1  UNL1        0.0000
     21 H           0.5250    8.0556    1.0353 H       1  UNL1        0.0000
     22 C           2.6107    8.3826    1.4006 C.2     1  UNL1        0.0000
     23 H           2.9242    8.1238    0.4010 H       1  UNL1        0.0000
     24 C           3.5255    8.7689    2.3654 C.2     1  UNL1        0.0000
     25 H           4.5800    8.8275    2.1516 H       1  UNL1        0.0000
     26 C           3.0635    9.0877    3.6280 C.3     1  UNL1        0.0000
     27 H           3.7602    9.3776    4.4014 H       1  UNL1        0.0000
     28 C           2.1996    6.3108    6.1713 C.3     1  UNL1        0.0000
     29 H           2.6154    6.9888    5.4328 H       1  UNL1        0.0000
     30 H           2.2522    5.2877    5.8045 H       1  UNL1        0.0000
     31 H           2.8136    6.3760    7.0698 H       1  UNL1        0.0000
     32 C           0.8862    8.6861    3.0474 C.2     1  UNL1        0.0000
     33 C          -0.9703    8.1470    6.5028 C.3     1  UNL1        0.0000
     34 C          -1.4896    9.5301    6.2338 C.3     1  UNL1        0.0000
     35 H          -2.5295    9.4757    5.8756 H       1  UNL1        0.0000
     36 H          -1.4945   10.0451    7.1997 H       1  UNL1        0.0000
     37 C          -1.8454    7.1876    6.9900 C.2     1  UNL1        0.0000
     38 H          -2.8819    7.4394    7.1506 H       1  UNL1        0.0000
     39 C          -1.3640    5.9213    7.2736 C.2     1  UNL1        0.0000
     40 H          -2.0131    5.1587    7.6755 H       1  UNL1        0.0000
     41 C           0.7880    6.6634    6.4997 C.2     1  UNL1        0.0000
     42 C          -0.9096   11.7372    5.5647 C.3     1  UNL1        0.0000
     43 H          -0.2808   12.3388    4.9132 H       1  UNL1        0.0000
     44 H          -0.6521   11.9844    6.5911 H       1  UNL1        0.0000
     45 H          -1.9630   11.9844    5.3854 H       1  UNL1        0.0000
     46 C          -0.0362    5.6589    7.0056 C.2     1  UNL1        0.0000
     47 H           0.3803    4.6802    7.1838 H       1  UNL1        0.0000
@<TRIPOS>BOND
     1    23    22    1
     2    21    20    1
     3    22    20    1
     4    22    24    2
     5    20    32    2
     6    25    24    1
     7    24    26    1
     8    16    14    1
     9    32    14    1
    10    32     2    1
    11    18    17    1
    12    14    17    1
    13    14    15    1
    14    26     2    1
    15    26    27    1
    16    19    17    1
    17    17     3    1
    18     2     1    1
    19    43    42    1
    20    10     9    2
    21     9     8    2
    22     3    42    1
    23     3     1    1
    24     3    34    1
    25    45    42    1
    26     8     1    1
    27    29    28    1
    28    42    44    1
    29    30    28    1
    30     1     4    1
    31     1    11    1
    32     1     5    1
    33    35    34    1
    34    28    41    1
    35    28    31    1
    36    34    33    1
    37    34    36    1
    38     4    41    1
    39     4    33    1
    40    11    12    2
    41    41    46    2
    42    33    37    1
    43    37    38    1
    44    37    39    2
    45    46    47    1
    46    46    39    1
    47    39    40    1
    48    12    13    2
    49     5     6    2
    50     6     7    2
