@<TRIPOS>MOLECULE
CSD_code = TOFBAT | q = 0 | S = 0 | Stoichiometry = C16H21CoN12O2 | MND = 6
 52 55 0 0 0
SMALL
GASTEIGER

@<TRIPOS>ATOM
      1 CO          6.7862    0.5417    3.7897 Co.oh   1  UNL1        0.0000
      2 N           7.3586    2.1961    4.7146 N.pl3   1  UNL1        0.0000
      3 N           5.2190    0.3136    5.1315 N.pl3   1  UNL1        0.0000
      4 N           8.2554   -0.3219    5.1447 N.4     1  UNL1        0.0000
      5 N           8.1745    0.7363    2.5814 N.2     1  UNL1        0.0000
      6 N           8.7212    1.7160    2.2455 N.2     1  UNL1        0.0000
      7 N           9.3680    2.5772    1.8844 N.2     1  UNL1        0.0000
      8 N           5.6636    1.4460    2.6281 N.2     1  UNL1        0.0000
      9 N           5.3946    1.3028    1.4933 N.2     1  UNL1        0.0000
     10 N           5.0134    1.3219    0.4271 N.2     1  UNL1        0.0000
     11 N           6.3283   -1.1022    3.0957 N.2     1  UNL1        0.0000
     12 N           6.4758   -1.6445    2.0656 N.2     1  UNL1        0.0000
     13 N           6.5475   -2.3235    1.1613 N.2     1  UNL1        0.0000
     14 O           9.0290    5.5231    6.5608 O.2     1  UNL1        0.0000
     15 O          10.2577    2.9142    6.6878 O.2     1  UNL1        0.0000
     16 C           6.7830    3.3871    4.6026 C.3     1  UNL1        0.0000
     17 H           5.8890    3.4335    4.0006 H       1  UNL1        0.0000
     18 C           7.2984    4.5244    5.1857 C.2     1  UNL1        0.0000
     19 H           6.7797    5.4581    5.0518 H       1  UNL1        0.0000
     20 C           8.4740    4.4601    5.9312 C.2     1  UNL1        0.0000
     21 C           9.1060    3.2027    6.0257 C.2     1  UNL1        0.0000
     22 C           8.4981    2.1095    5.4008 C.2     1  UNL1        0.0000
     23 C           9.1906    0.7766    5.4049 C.3     1  UNL1        0.0000
     24 H           9.7304    0.6302    6.3500 H       1  UNL1        0.0000
     25 H           9.9360    0.8032    4.6033 H       1  UNL1        0.0000
     26 C          11.1771    3.9386    7.0171 C.3     1  UNL1        0.0000
     27 H          11.4204    4.5484    6.1454 H       1  UNL1        0.0000
     28 H          12.0708    3.4143    7.3537 H       1  UNL1        0.0000
     29 H          10.8029    4.5772    7.8188 H       1  UNL1        0.0000
     30 C           8.4632    6.8011    6.3650 C.3     1  UNL1        0.0000
     31 H           8.4503    7.0740    5.3065 H       1  UNL1        0.0000
     32 H           9.1098    7.4880    6.9083 H       1  UNL1        0.0000
     33 H           7.4504    6.8573    6.7743 H       1  UNL1        0.0000
     34 C           9.0023   -1.4467    4.5769 C.3     1  UNL1        0.0000
     35 H           9.8320   -1.7345    5.2340 H       1  UNL1        0.0000
     36 H           9.3897   -1.1661    3.5999 H       1  UNL1        0.0000
     37 H           8.3489   -2.3035    4.4375 H       1  UNL1        0.0000
     38 C           7.6360   -0.7325    6.4061 C.3     1  UNL1        0.0000
     39 H           7.3865    0.1649    6.9813 H       1  UNL1        0.0000
     40 H           8.3574   -1.3205    6.9942 H       1  UNL1        0.0000
     41 C           6.3621   -1.5542    6.1936 C.3     1  UNL1        0.0000
     42 H           6.4618   -2.1548    5.2876 H       1  UNL1        0.0000
     43 H           6.2092   -2.2247    7.0398 H       1  UNL1        0.0000
     44 C           5.1632   -0.6734    6.0286 C.3     1  UNL1        0.0000
     45 C           2.9301   -0.0705    6.6747 C.2     1  UNL1        0.0000
     46 H           2.0435   -0.2304    7.2694 H       1  UNL1        0.0000
     47 C           4.0343   -0.8902    6.8130 C.2     1  UNL1        0.0000
     48 H           4.0280   -1.7049    7.5208 H       1  UNL1        0.0000
     49 C           2.9994    0.9590    5.7510 C.2     1  UNL1        0.0000
     50 H           2.1716    1.6323    5.5975 H       1  UNL1        0.0000
     51 C           4.1561    1.1059    5.0085 C.2     1  UNL1        0.0000
     52 H           4.2252    1.8804    4.2596 H       1  UNL1        0.0000
@<TRIPOS>BOND
     1    10     9    2
     2    13    12    2
     3     9     8    2
     4     7     6    2
     5    12    11    2
     6     6     5    2
     7     5     1    1
     8     8     1    1
     9    11     1    1
    10    36    34    1
    11     1     2    1
    12     1     3    1
    13     1     4    1
    14    17    16    1
    15    52    51    1
    16    37    34    1
    17    34     4    1
    18    34    35    1
    19    16     2    1
    20    16    18    1
    21    25    23    1
    22     2    22    1
    23    51     3    1
    24    51    49    2
    25    19    18    1
    26     3    44    1
    27     4    23    1
    28     4    38    1
    29    18    20    2
    30    42    41    1
    31    31    30    1
    32    22    23    1
    33    22    21    2
    34    23    24    1
    35    50    49    1
    36    49    45    1
    37    20    21    1
    38    20    14    1
    39    21    15    1
    40    44    41    1
    41    44    47    1
    42    27    26    1
    43    41    38    1
    44    41    43    1
    45    30    14    1
    46    30    33    1
    47    30    32    1
    48    38    39    1
    49    38    40    1
    50    45    47    2
    51    45    46    1
    52    15    26    1
    53    47    48    1
    54    26    28    1
    55    26    29    1
