@<TRIPOS>MOLECULE
CSD_code = VAWGIL | q = 1 | S = 0 | Stoichiometry = C24H16CoN6O4(1+) | MND = 6
 51 58 0 0 0
SMALL
GASTEIGER

@<TRIPOS>ATOM
      1 CO         -1.4422    8.5535    2.8757 Co.oh   1  UNL1        0.0000
      2 N           0.2828    9.2025    2.4486 N.pl3   1  UNL1        0.0000
      3 N          -1.4252    7.8263    1.1778 N.am    1  UNL1        0.0000
      4 N          -3.1636    7.7825    3.0223 N.pl3   1  UNL1        0.0000
      5 N          -2.2067   10.1959    2.3308 N.pl3   1  UNL1        0.0000
      6 N          -1.4593    9.2807    4.5734 N.am    1  UNL1        0.0000
      7 N          -0.6808    7.0312    3.7017 N.pl3   1  UNL1        0.0000
      8 C           1.1226    9.9270    3.1874 C.3     1  UNL1        0.0000
      9 H           0.8040   10.2013    4.1834 H       1  UNL1        0.0000
     10 C           2.3644   10.3281    2.7223 C.2     1  UNL1        0.0000
     11 H           3.0049   10.9136    3.3621 H       1  UNL1        0.0000
     12 C           2.7616    9.9695    1.4423 C.2     1  UNL1        0.0000
     13 H           3.7233   10.2691    1.0564 H       1  UNL1        0.0000
     14 C           1.8897    9.2163    0.6739 C.2     1  UNL1        0.0000
     15 H           2.1218    8.8961   -0.3306 H       1  UNL1        0.0000
     16 C           0.6633    8.8535    1.2102 C.2     1  UNL1        0.0000
     17 C          -0.3149    8.0346    0.4091 C.2     1  UNL1        0.0000
     18 C          -2.5245    7.1195    0.7790 C.2     1  UNL1        0.0000
     19 C          -3.5200    7.1231    1.9095 C.3     1  UNL1        0.0000
     20 C          -4.7371    6.4701    1.7839 C.2     1  UNL1        0.0000
     21 H          -4.9494    5.9615    0.8557 H       1  UNL1        0.0000
     22 C          -5.6250    6.4957    2.8463 C.2     1  UNL1        0.0000
     23 H          -6.5796    5.9975    2.7830 H       1  UNL1        0.0000
     24 C          -5.2532    7.1798    3.9946 C.2     1  UNL1        0.0000
     25 H          -5.9073    7.2315    4.8501 H       1  UNL1        0.0000
     26 C          -4.0194    7.8079    4.0436 C.2     1  UNL1        0.0000
     27 H          -3.7205    8.3434    4.9339 H       1  UNL1        0.0000
     28 C          -2.5767   10.5965    1.1148 C.3     1  UNL1        0.0000
     29 H          -2.4372    9.9048    0.2958 H       1  UNL1        0.0000
     30 C          -3.1228   11.8477    0.8791 C.2     1  UNL1        0.0000
     31 H          -3.4052   12.1209   -0.1249 H       1  UNL1        0.0000
     32 C          -3.2963   12.7266    1.9384 C.2     1  UNL1        0.0000
     33 H          -3.7186   13.7067    1.7816 H       1  UNL1        0.0000
     34 C          -2.9129   12.3109    3.2026 C.2     1  UNL1        0.0000
     35 H          -3.0146   12.9328    4.0791 H       1  UNL1        0.0000
     36 C          -2.3742   11.0424    3.3582 C.2     1  UNL1        0.0000
     37 C          -1.9463   10.5494    4.7157 C.2     1  UNL1        0.0000
     38 C          -0.9850    8.5114    5.5983 C.2     1  UNL1        0.0000
     39 C          -0.5376    7.1917    5.0260 C.3     1  UNL1        0.0000
     40 C          -0.0064    6.2074    5.8461 C.2     1  UNL1        0.0000
     41 H           0.0753    6.4132    6.9027 H       1  UNL1        0.0000
     42 C           0.3950    5.0083    5.2814 C.2     1  UNL1        0.0000
     43 H           0.8119    4.2212    5.8899 H       1  UNL1        0.0000
     44 C           0.2466    4.8470    3.9116 C.2     1  UNL1        0.0000
     45 H           0.5437    3.9338    3.4215 H       1  UNL1        0.0000
     46 C          -0.2933    5.8774    3.1592 C.2     1  UNL1        0.0000
     47 H          -0.4133    5.7613    2.0910 H       1  UNL1        0.0000
     48 O          -0.0954    7.6578   -0.7130 O.2     1  UNL1        0.0000
     49 O          -2.7240    6.5691   -0.2728 O.2     1  UNL1        0.0000
     50 O          -2.0425   11.2102    5.7172 O.2     1  UNL1        0.0000
     51 O          -0.9117    8.7806    6.7693 O.2     1  UNL1        0.0000
@<TRIPOS>BOND
     1    48    17    2
     2    15    14    1
     3    49    18    2
     4    31    30    1
     5    29    28    1
     6    17     3   am
     7    17    16    1
     8    14    16    2
     9    14    12    1
    10    18     3   am
    11    18    19    1
    12    21    20    1
    13    30    28    1
    14    30    32    2
    15    13    12    1
    16    28     5    1
    17     3     1    1
    18    16     2    1
    19    12    10    2
    20    33    32    1
    21    20    19    1
    22    20    22    2
    23    19     4    1
    24    32    34    1
    25    47    46    1
    26     5     1    1
    27     5    36    1
    28     2     1    1
    29     2     8    1
    30    10     8    1
    31    10    11    1
    32    23    22    1
    33    22    24    1
    34     1     4    1
    35     1     7    1
    36     1     6    1
    37     4    26    1
    38    46     7    1
    39    46    44    2
    40     8     9    1
    41    34    36    2
    42    34    35    1
    43    36    37    1
    44    45    44    1
    45     7    39    1
    46    44    42    1
    47    24    26    2
    48    24    25    1
    49    26    27    1
    50     6    37   am
    51     6    38   am
    52    37    50    2
    53    39    38    1
    54    39    40    1
    55    42    40    2
    56    42    43    1
    57    38    51    2
    58    40    41    1
