@<TRIPOS>MOLECULE
CSD_code = VOPLUH | q = 1 | S = 0 | Stoichiometry = C23H31CoN5O3(1+) | MND = 6
 63 69 0 0 0
SMALL
GASTEIGER

@<TRIPOS>ATOM
      1 CO          2.5211    1.9977    0.7370 Co.oh   1  UNL1        0.0000
      2 N           2.6834    3.2595    2.1637 N.pl3   1  UNL1        0.0000
      3 N           4.3912    1.4965    1.1952 N.4     1  UNL1        0.0000
      4 N           2.5632    0.4293   -0.5551 N.4     1  UNL1        0.0000
      5 N           2.9383    3.4038   -0.6540 N.4     1  UNL1        0.0000
      6 N           0.7700    2.4047    0.4127 N.am    1  UNL1        0.0000
      7 O           1.8563    0.7898    1.9712 O.3     1  UNL1        0.0000
      8 O           0.0358    0.0059    2.9193 O.2     1  UNL1        0.0000
      9 O          -0.6736    3.9086   -0.4874 O.2     1  UNL1        0.0000
     10 C           0.5614    0.7631    2.1445 C.2     1  UNL1        0.0000
     11 C          -0.2025    1.7571    1.2654 C.3     1  UNL1        0.0000
     12 C           0.4397    3.4438   -0.3438 C.2     1  UNL1        0.0000
     13 C           1.6663    4.0573   -1.0631 C.3     1  UNL1        0.0000
     14 C           1.8730    4.2732    2.4707 C.3     1  UNL1        0.0000
     15 C           2.0219    5.0255    3.6212 C.2     1  UNL1        0.0000
     16 C           3.0543    4.7191    4.4946 C.2     1  UNL1        0.0000
     17 C           3.9006    3.6721    4.1717 C.2     1  UNL1        0.0000
     18 C           3.6849    2.9580    3.0019 C.2     1  UNL1        0.0000
     19 C           4.5291    1.7716    2.6326 C.3     1  UNL1        0.0000
     20 C           4.5548    0.0805    0.8232 C.3     1  UNL1        0.0000
     21 C           3.9404   -0.1192   -0.5691 C.3     1  UNL1        0.0000
     22 C           4.0004   -1.6138   -0.9076 C.3     1  UNL1        0.0000
     23 C           5.4482   -2.1020   -0.8897 C.3     1  UNL1        0.0000
     24 C           6.0870   -1.8629    0.4733 C.3     1  UNL1        0.0000
     25 C           6.0104   -0.3840    0.8461 C.3     1  UNL1        0.0000
     26 C           1.9383    0.4706   -1.8948 C.3     1  UNL1        0.0000
     27 C           0.4360    0.3706   -1.8161 C.ar    1  UNL1        0.0000
     28 C          -0.1529   -0.6982   -1.1482 C.ar    1  UNL1        0.0000
     29 C          -1.5303   -0.8047   -1.0722 C.ar    1  UNL1        0.0000
     30 C          -2.3338    0.1523   -1.6702 C.ar    1  UNL1        0.0000
     31 C          -1.7550    1.2050   -2.3580 C.ar    1  UNL1        0.0000
     32 C          -0.3775    1.3097   -2.4339 C.ar    1  UNL1        0.0000
     33 H           3.3812    3.0136   -1.4840 H       1  UNL1        0.0000
     34 H           3.5724    4.1262   -0.3158 H       1  UNL1        0.0000
     35 H          -0.7289    2.4794    1.9000 H       1  UNL1        0.0000
     36 H          -0.9548    1.2234    0.6763 H       1  UNL1        0.0000
     37 H           1.5022    3.9644   -2.1376 H       1  UNL1        0.0000
     38 H           1.6831    5.1230   -0.8276 H       1  UNL1        0.0000
     39 H           5.1126    2.0266    0.7019 H       1  UNL1        0.0000
     40 H           2.0009   -0.2377   -0.0154 H       1  UNL1        0.0000
     41 H           5.5700    1.9242    2.9354 H       1  UNL1        0.0000
     42 H           4.1284    0.9135    3.1823 H       1  UNL1        0.0000
     43 H           2.2265    1.3876   -2.4132 H       1  UNL1        0.0000
     44 H           2.3042   -0.3720   -2.4929 H       1  UNL1        0.0000
     45 H           3.9673   -0.5054    1.5374 H       1  UNL1        0.0000
     46 H           4.5206    0.4455   -1.3112 H       1  UNL1        0.0000
     47 H           3.4189   -2.1709   -0.1697 H       1  UNL1        0.0000
     48 H           3.5754   -1.8126   -1.8915 H       1  UNL1        0.0000
     49 H           6.0190   -1.5794   -1.6602 H       1  UNL1        0.0000
     50 H           5.4716   -3.1655   -1.1252 H       1  UNL1        0.0000
     51 H           5.5686   -2.4543    1.2295 H       1  UNL1        0.0000
     52 H           7.1284   -2.1829    0.4560 H       1  UNL1        0.0000
     53 H           6.5960    0.2023    0.1322 H       1  UNL1        0.0000
     54 H           6.4356   -0.2348    1.8395 H       1  UNL1        0.0000
     55 H           1.0717    4.4892    1.7798 H       1  UNL1        0.0000
     56 H           1.3339    5.8288    3.8266 H       1  UNL1        0.0000
     57 H           3.1949    5.2790    5.4054 H       1  UNL1        0.0000
     58 H           4.7152    3.3959    4.8222 H       1  UNL1        0.0000
     59 H           0.0623    2.1280   -2.9839 H       1  UNL1        0.0000
     60 H          -2.3731    1.9515   -2.8301 H       1  UNL1        0.0000
     61 H          -3.4074    0.0733   -1.6046 H       1  UNL1        0.0000
     62 H          -1.9738   -1.6344   -0.5442 H       1  UNL1        0.0000
     63 H           0.4574   -1.4655   -0.6899 H       1  UNL1        0.0000
@<TRIPOS>BOND
     1    59    32    1
     2    60    31    1
     3    44    26    1
     4    32    31   ar
     5    32    27   ar
     6    43    26    1
     7    31    30   ar
     8    37    13    1
     9    26    27    1
    10    26     4    1
    11    48    22    1
    12    27    28   ar
    13    30    61    1
    14    30    29   ar
    15    49    23    1
    16    33     5    1
    17    46    21    1
    18    28    29   ar
    19    28    63    1
    20    50    23    1
    21    29    62    1
    22    13    38    1
    23    13     5    1
    24    13    12    1
    25    22    23    1
    26    22    21    1
    27    22    47    1
    28    23    24    1
    29     5    34    1
    30     5     1    1
    31    21     4    1
    32    21    20    1
    33     4    40    1
    34     4     1    1
    35     9    12    2
    36    12     6   am
    37    53    25    1
    38     6     1    1
    39     6    11    1
    40    52    24    1
    41    24    25    1
    42    24    51    1
    43    36    11    1
    44    39     3    1
    45     1     3    1
    46     1     7    1
    47     1     2    1
    48    20    25    1
    49    20     3    1
    50    20    45    1
    51    25    54    1
    52     3    19    1
    53    11    35    1
    54    11    10    1
    55    55    14    1
    56     7    10    1
    57    10     8    2
    58     2    14    1
    59     2    18    1
    60    14    15    1
    61    19    41    1
    62    19    18    1
    63    19    42    1
    64    18    17    2
    65    15    56    1
    66    15    16    2
    67    17    16    1
    68    17    58    1
    69    16    57    1
