@<TRIPOS>MOLECULE
CSD_code = WAHNIE | q = -1 | S = 0 | Stoichiometry = C34H22CoN10O4(1-) | MND = 6
 71 80 0 0 0
SMALL
GASTEIGER

@<TRIPOS>ATOM
      1 CO          5.4322   -3.5569   10.1748 Co.oh   1  UNL1        0.0000
      2 O           6.1061   -4.7721    6.4590 O.2     1  UNL1        0.0000
      3 O           4.7482    0.0958    8.7934 O.2     1  UNL1        0.0000
      4 N           6.9971   -4.2875    9.8042 N.pl3   1  UNL1        0.0000
      5 N           4.6215   -5.1053   10.9916 N.am    1  UNL1        0.0000
      6 N           5.8534   -1.8180    9.4517 N.am    1  UNL1        0.0000
      7 N           6.2415   -3.2258   11.8884 N.am    1  UNL1        0.0000
      8 O           2.8037   -5.6090   12.3212 O.2     1  UNL1        0.0000
      9 O           8.0968   -3.8739   13.0938 O.2     1  UNL1        0.0000
     10 N           3.8797   -2.7996   10.5456 N.pl3   1  UNL1        0.0000
     11 N           5.0085   -4.0750    8.3660 N.am    1  UNL1        0.0000
     12 C           7.2454   -4.6830    8.5615 C.3     1  UNL1        0.0000
     13 C           5.7779   -7.0473   10.1210 C.ar    1  UNL1        0.0000
     14 H           5.6410   -6.6833    9.1133 H       1  UNL1        0.0000
     15 C           7.9134   -4.3787   10.7597 C.2     1  UNL1        0.0000
     16 N           1.4281   -3.8899    7.6671 N.ar    1  UNL1        0.0000
     17 C           2.9922   -3.4685   11.2700 C.3     1  UNL1        0.0000
     18 N           9.4174   -1.3933    8.7746 N.ar    1  UNL1        0.0000
     19 C           5.2470   -6.3312   11.1968 C.ar    1  UNL1        0.0000
     20 C           9.3939   -1.0906    7.4855 C.ar    1  UNL1        0.0000
     21 H          10.3627   -0.9591    7.0199 H       1  UNL1        0.0000
     22 C           9.4481   -5.3305    9.2036 C.2     1  UNL1        0.0000
     23 H          10.4184   -5.7405    8.9652 H       1  UNL1        0.0000
     24 C           7.0152   -1.1399    7.4134 C.ar    1  UNL1        0.0000
     25 H           6.0760   -1.0220    6.8963 H       1  UNL1        0.0000
     26 C           3.6382   -1.5699   10.1090 C.2     1  UNL1        0.0000
     27 C           8.4811   -5.2086    8.2157 C.2     1  UNL1        0.0000
     28 H           8.6563   -5.5084    7.1944 H       1  UNL1        0.0000
     29 C           9.1647   -4.9165   10.4969 C.2     1  UNL1        0.0000
     30 H           9.8839   -4.9856   11.2973 H       1  UNL1        0.0000
     31 C           8.2691   -1.5802    9.3944 C.ar    1  UNL1        0.0000
     32 H           8.3328   -1.7994   10.4525 H       1  UNL1        0.0000
     33 C           2.4319   -0.9429   10.3821 C.2     1  UNL1        0.0000
     34 H           2.2608    0.0525   10.0040 H       1  UNL1        0.0000
     35 C           6.0685   -4.4992    7.6544 C.2     1  UNL1        0.0000
     36 C           3.4583   -4.8475   11.6196 C.2     1  UNL1        0.0000
     37 C           7.4341   -3.8226   12.0649 C.2     1  UNL1        0.0000
     38 C           4.7945   -0.9943    9.3521 C.2     1  UNL1        0.0000
     39 C           3.7980   -2.9997    6.5367 C.ar    1  UNL1        0.0000
     40 H           4.7239   -2.6747    6.0890 H       1  UNL1        0.0000
     41 N           6.0473   -8.0194   12.6979 N.ar    1  UNL1        0.0000
     42 C           8.2196   -0.9317    6.7681 C.ar    1  UNL1        0.0000
     43 H           8.2447   -0.6588    5.7232 H       1  UNL1        0.0000
     44 C           5.5691   -2.7223   12.9998 C.ar    1  UNL1        0.0000
     45 C           3.8234   -3.7716    7.7007 C.ar    1  UNL1        0.0000
     46 C           7.0219   -1.5048    8.7617 C.ar    1  UNL1        0.0000
     47 C           6.4635   -8.2227   10.3633 C.ar    1  UNL1        0.0000
     48 H           6.8884   -8.7898    9.5477 H       1  UNL1        0.0000
     49 C           1.7728   -2.8992   11.6045 C.2     1  UNL1        0.0000
     50 H           1.0767   -3.4654   12.2026 H       1  UNL1        0.0000
     51 C           4.6367   -2.9521   15.1926 C.ar    1  UNL1        0.0000
     52 H           4.4706   -3.5187   16.0969 H       1  UNL1        0.0000
     53 C           1.4926   -1.6203   11.1460 C.2     1  UNL1        0.0000
     54 H           0.5482   -1.1536   11.3835 H       1  UNL1        0.0000
     55 C           2.5905   -4.2118    8.1986 C.ar    1  UNL1        0.0000
     56 H           2.5497   -4.8595    9.0650 H       1  UNL1        0.0000
     57 C           5.3950   -6.8981   12.4706 C.ar    1  UNL1        0.0000
     58 H           4.9582   -6.4199   13.3351 H       1  UNL1        0.0000
     59 C           5.3879   -3.4796   14.1594 C.ar    1  UNL1        0.0000
     60 H           5.8335   -4.4594   14.2334 H       1  UNL1        0.0000
     61 C           4.0914   -1.6877   15.0400 C.ar    1  UNL1        0.0000
     62 H           3.4799   -1.2393   15.8130 H       1  UNL1        0.0000
     63 C           6.5854   -8.6599   11.6726 C.ar    1  UNL1        0.0000
     64 H           7.1249   -9.5663   11.9174 H       1  UNL1        0.0000
     65 C           2.5786   -2.6717    5.9748 C.ar    1  UNL1        0.0000
     66 H           2.5293   -2.0683    5.0802 H       1  UNL1        0.0000
     67 C           1.4212   -3.1244    6.5864 C.ar    1  UNL1        0.0000
     68 H           0.4418   -2.8797    6.1947 H       1  UNL1        0.0000
     69 N           4.2856   -0.9413   13.9632 N.ar    1  UNL1        0.0000
     70 C           5.0112   -1.4386   12.9812 C.ar    1  UNL1        0.0000
     71 H           5.1649   -0.7874   12.1298 H       1  UNL1        0.0000
@<TRIPOS>BOND
     1    66    65    1
     2    43    42    1
     3    65    39   ar
     4    65    67   ar
     5    40    39    1
     6    68    67    1
     7     2    35    2
     8    39    45   ar
     9    67    16   ar
    10    42    24   ar
    11    42    20   ar
    12    25    24    1
    13    21    20    1
    14    28    27    1
    15    24    46   ar
    16    20    18   ar
    17    35    11   am
    18    35    12    1
    19    16    55   ar
    20    45    55   ar
    21    45    11    1
    22    55    56    1
    23    27    12    1
    24    27    22    2
    25    11     1    1
    26    12     4    1
    27    46    31   ar
    28    46     6    1
    29    18    31   ar
    30     3    38    2
    31    23    22    1
    32    14    13    1
    33    22    29    1
    34    38     6   am
    35    38    26    1
    36    31    32    1
    37     6     1    1
    38    48    47    1
    39     4     1    1
    40     4    15    1
    41    34    33    1
    42    26    33    2
    43    26    10    1
    44    13    47   ar
    45    13    19   ar
    46     1    10    1
    47     1     5    1
    48     1     7    1
    49    47    63   ar
    50    33    53    1
    51    29    15    2
    52    29    30    1
    53    10    17    1
    54    15    37    1
    55     5    19    1
    56     5    36   am
    57    53    54    1
    58    53    49    2
    59    19    57   ar
    60    17    49    1
    61    17    36    1
    62    49    50    1
    63    36     8    2
    64    63    64    1
    65    63    41   ar
    66     7    37   am
    67     7    44    1
    68    37     9    2
    69    71    70    1
    70    57    41   ar
    71    57    58    1
    72    70    44   ar
    73    70    69   ar
    74    44    59   ar
    75    69    61   ar
    76    59    60    1
    77    59    51   ar
    78    61    51   ar
    79    61    62    1
    80    51    52    1
