@<TRIPOS>MOLECULE
CSD_code = XABYIL | q = 1 | S = 0 | Stoichiometry = C30H22CoN6(1+) | MND = 6
 59 67 0 0 0
SMALL
GASTEIGER

@<TRIPOS>ATOM
      1 CO         -0.3826   -2.9730    3.4633 Co.oh   1  UNL1        0.0000
      2 N          -2.2284   -3.0118    4.2896 N.pl3   1  UNL1        0.0000
      3 C          -3.1674   -3.9476    4.2429 C.3     1  UNL1        0.0000
      4 H          -2.9867   -4.7881    3.5868 H       1  UNL1        0.0000
      5 C          -4.3399   -3.8835    4.9748 C.2     1  UNL1        0.0000
      6 H          -5.0762   -4.6660    4.8891 H       1  UNL1        0.0000
      7 C          -4.5471   -2.7946    5.8118 C.2     1  UNL1        0.0000
      8 H          -5.4487   -2.7130    6.3985 H       1  UNL1        0.0000
      9 C          -3.5734   -1.8169    5.8764 C.2     1  UNL1        0.0000
     10 H          -3.6994   -0.9624    6.5211 H       1  UNL1        0.0000
     11 C          -2.4257   -1.9466    5.0957 C.2     1  UNL1        0.0000
     12 C          -1.3267   -0.9926    5.0699 C.3     1  UNL1        0.0000
     13 C          -1.2631    0.2174    5.7498 C.2     1  UNL1        0.0000
     14 H          -2.0876    0.5481    6.3597 H       1  UNL1        0.0000
     15 C          -0.1240    1.0028    5.6326 C.2     1  UNL1        0.0000
     16 H          -0.0592    1.9461    6.1506 H       1  UNL1        0.0000
     17 C           0.9273    0.5638    4.8436 C.2     1  UNL1        0.0000
     18 H           1.8203    1.1584    4.7425 H       1  UNL1        0.0000
     19 C           0.8072   -0.6511    4.1783 C.2     1  UNL1        0.0000
     20 N          -0.3049   -1.4079    4.2934 N.pl3   1  UNL1        0.0000
     21 C           1.7684   -1.2684    3.2866 C.3     1  UNL1        0.0000
     22 C           3.0372   -0.7720    2.9951 C.2     1  UNL1        0.0000
     23 H           3.3810    0.1351    3.4651 H       1  UNL1        0.0000
     24 C           3.8413   -1.4516    2.1029 C.2     1  UNL1        0.0000
     25 H           4.8244   -1.0850    1.8543 H       1  UNL1        0.0000
     26 C           3.3506   -2.6207    1.5293 C.2     1  UNL1        0.0000
     27 H           3.9407   -3.1801    0.8219 H       1  UNL1        0.0000
     28 C           2.0880   -3.0608    1.8740 C.2     1  UNL1        0.0000
     29 H           1.6959   -3.9678    1.4349 H       1  UNL1        0.0000
     30 N           1.2966   -2.4151    2.7316 N.pl3   1  UNL1        0.0000
     31 N           0.3291   -4.4546    4.9386 N.pl3   1  UNL1        0.0000
     32 C           0.9745   -4.2574    6.0804 C.3     1  UNL1        0.0000
     33 H           0.8057   -3.3046    6.5648 H       1  UNL1        0.0000
     34 C           1.8065   -5.2043    6.6502 C.2     1  UNL1        0.0000
     35 H           2.2983   -5.0055    7.5885 H       1  UNL1        0.0000
     36 C           1.9863   -6.4135    5.9895 C.2     1  UNL1        0.0000
     37 H           2.6330   -7.1737    6.3992 H       1  UNL1        0.0000
     38 C           1.3228   -6.6256    4.7953 C.2     1  UNL1        0.0000
     39 H           1.4624   -7.5446    4.2493 H       1  UNL1        0.0000
     40 C           0.4909   -5.6233    4.2985 C.2     1  UNL1        0.0000
     41 C          -0.2518   -5.7329    3.0427 C.3     1  UNL1        0.0000
     42 C          -0.6019   -6.9577    2.4843 C.2     1  UNL1        0.0000
     43 H          -0.3398   -7.8759    2.9835 H       1  UNL1        0.0000
     44 C          -1.3157   -6.9823    1.2984 C.2     1  UNL1        0.0000
     45 H          -1.6202   -7.9182    0.8579 H       1  UNL1        0.0000
     46 C          -1.6231   -5.7785    0.6860 C.2     1  UNL1        0.0000
     47 H          -2.1727   -5.7638   -0.2408 H       1  UNL1        0.0000
     48 C          -1.2384   -4.5839    1.2867 C.2     1  UNL1        0.0000
     49 N          -0.5930   -4.5588    2.4704 N.pl3   1  UNL1        0.0000
     50 C          -1.4998   -3.2862    0.6528 C.ar    1  UNL1        0.0000
     51 C          -1.5930   -3.1333   -0.7307 C.ar    1  UNL1        0.0000
     52 H          -1.4663   -3.9768   -1.3905 H       1  UNL1        0.0000
     53 C          -1.8251   -1.8711   -1.2472 C.ar    1  UNL1        0.0000
     54 H          -1.9086   -1.7238   -2.3132 H       1  UNL1        0.0000
     55 C          -1.9447   -0.7998   -0.3727 C.ar    1  UNL1        0.0000
     56 H          -2.1377    0.1965   -0.7364 H       1  UNL1        0.0000
     57 C          -1.8144   -1.0436    0.9848 C.ar    1  UNL1        0.0000
     58 H          -1.8965   -0.2400    1.7050 H       1  UNL1        0.0000
     59 N          -1.6007   -2.2475    1.4885 N.ar    1  UNL1        0.0000
@<TRIPOS>BOND
     1    54    53    1
     2    52    51    1
     3    53    51   ar
     4    53    55   ar
     5    56    55    1
     6    51    50   ar
     7    55    57   ar
     8    47    46    1
     9    50    48    1
    10    50    59   ar
    11    46    48    2
    12    46    44    1
    13    27    26    1
    14    45    44    1
    15    57    59   ar
    16    57    58    1
    17    48    49    1
    18    44    42    2
    19    29    28    1
    20    26    28    2
    21    26    24    1
    22    25    24    1
    23    28    30    1
    24    24    22    2
    25    49    41    1
    26    49     1    1
    27    42    43    1
    28    42    41    1
    29    30    21    1
    30    30     1    1
    31    22    21    1
    32    22    23    1
    33    41    40    1
    34    21    19    1
    35     1     2    1
    36     1    20    1
    37     1    31    1
    38     4     3    1
    39    19    20    1
    40    19    17    2
    41     3     2    1
    42     3     5    1
    43    39    38    1
    44     2    11    1
    45    20    12    1
    46    40    38    2
    47    40    31    1
    48    18    17    1
    49    38    36    1
    50    17    15    1
    51     6     5    1
    52    31    32    1
    53     5     7    2
    54    12    11    1
    55    12    13    1
    56    11     9    2
    57    15    13    2
    58    15    16    1
    59    13    14    1
    60     7     9    1
    61     7     8    1
    62     9    10    1
    63    36    37    1
    64    36    34    2
    65    32    33    1
    66    32    34    1
    67    34    35    1
