@<TRIPOS>MOLECULE
CSD_code = XANQUZ | q = 0 | S = 0 | Stoichiometry = C34H46CoN3 | MND = 4
 84 88 0 0 0
SMALL
GASTEIGER

@<TRIPOS>ATOM
      1 CO         10.2109   12.7666    8.8081 Co.oh   1  UNL1        0.0000
      2 C          11.3396   14.3406    8.5542 C.3     1  UNL1        0.0000
      3 H          11.8107   14.4699    7.5769 H       1  UNL1        0.0000
      4 H          12.1670   14.1700    9.2611 H       1  UNL1        0.0000
      5 H          10.9177   15.3111    8.8261 H       1  UNL1        0.0000
      6 N           8.9404   11.5243    8.7497 N.pl3   1  UNL1        0.0000
      7 C           7.8137   11.7020    9.4817 C.2     1  UNL1        0.0000
      8 C           6.7161   10.8612    9.3164 C.2     1  UNL1        0.0000
      9 H           5.8264   10.9998    9.9101 H       1  UNL1        0.0000
     10 C           6.7832    9.8530    8.3636 C.2     1  UNL1        0.0000
     11 H           5.9447    9.1876    8.2237 H       1  UNL1        0.0000
     12 C           7.9143    9.7185    7.5688 C.2     1  UNL1        0.0000
     13 H           7.9594    8.9656    6.7978 H       1  UNL1        0.0000
     14 C           8.9850   10.5847    7.7738 C.2     1  UNL1        0.0000
     15 C           7.9701   12.8416   10.3381 C.3     1  UNL1        0.0000
     16 N           9.0816   13.5079   10.1275 N.pl3   1  UNL1        0.0000
     17 C           6.9386   13.1911   11.3651 C.3     1  UNL1        0.0000
     18 H           7.3027   13.9666   12.0351 H       1  UNL1        0.0000
     19 H           6.6780   12.3067   11.9462 H       1  UNL1        0.0000
     20 H           6.0304   13.5469   10.8775 H       1  UNL1        0.0000
     21 C          10.2225   10.6924    7.0574 C.2     1  UNL1        0.0000
     22 N          10.9473   11.7273    7.4146 N.pl3   1  UNL1        0.0000
     23 C          10.6107    9.6882    6.0172 C.3     1  UNL1        0.0000
     24 H          11.6460    9.8229    5.7132 H       1  UNL1        0.0000
     25 H           9.9715    9.7918    5.1402 H       1  UNL1        0.0000
     26 H          10.4785    8.6792    6.4066 H       1  UNL1        0.0000
     27 C           9.3559   14.6605   10.8894 C.ar    1  UNL1        0.0000
     28 C           8.7040   15.8711   10.6127 C.ar    1  UNL1        0.0000
     29 C           9.0279   16.9858   11.3728 C.ar    1  UNL1        0.0000
     30 H           8.5439   17.9286   11.1676 H       1  UNL1        0.0000
     31 C           9.9574   16.9108   12.3915 C.ar    1  UNL1        0.0000
     32 H          10.1852   17.7865   12.9815 H       1  UNL1        0.0000
     33 C          10.6040   15.7160   12.6482 C.ar    1  UNL1        0.0000
     34 H          11.3329   15.6720   13.4418 H       1  UNL1        0.0000
     35 C          10.3268   14.5838   11.8990 C.ar    1  UNL1        0.0000
     36 C           7.7004   15.9952    9.4876 C.3     1  UNL1        0.0000
     37 H           7.5135   15.0027    9.0677 H       1  UNL1        0.0000
     38 C           8.2695   16.8661    8.3644 C.3     1  UNL1        0.0000
     39 H           9.1735   16.4154    7.9634 H       1  UNL1        0.0000
     40 H           8.5094   17.8621    8.7298 H       1  UNL1        0.0000
     41 H           7.5434   16.9581    7.5592 H       1  UNL1        0.0000
     42 C           6.3696   16.5696    9.9814 C.3     1  UNL1        0.0000
     43 H           5.9977   16.0141   10.8399 H       1  UNL1        0.0000
     44 H           5.6265   16.5194    9.1879 H       1  UNL1        0.0000
     45 H           6.4799   17.6111   10.2737 H       1  UNL1        0.0000
     46 C          11.0236   13.2681   12.1586 C.3     1  UNL1        0.0000
     47 H          11.0345   12.7104   11.2055 H       1  UNL1        0.0000
     48 C          10.2383   12.4471   13.1851 C.3     1  UNL1        0.0000
     49 H           9.2366   12.2309   12.8228 H       1  UNL1        0.0000
     50 H          10.1557   12.9951   14.1223 H       1  UNL1        0.0000
     51 H          10.7437   11.5033   13.3799 H       1  UNL1        0.0000
     52 C          12.4704   13.4403   12.6150 C.3     1  UNL1        0.0000
     53 H          13.0054   14.1045   11.9409 H       1  UNL1        0.0000
     54 H          12.9721   12.4752   12.6195 H       1  UNL1        0.0000
     55 H          12.5238   13.8457   13.6228 H       1  UNL1        0.0000
     56 C          12.1866   11.9582    6.7867 C.ar    1  UNL1        0.0000
     57 C          13.3620   11.6781    7.4995 C.ar    1  UNL1        0.0000
     58 C          14.5849   11.9086    6.8900 C.ar    1  UNL1        0.0000
     59 H          15.4997   11.6824    7.4145 H       1  UNL1        0.0000
     60 C          14.6516   12.4303    5.6114 C.ar    1  UNL1        0.0000
     61 H          15.6117   12.6075    5.1493 H       1  UNL1        0.0000
     62 C          13.4894   12.7342    4.9299 C.ar    1  UNL1        0.0000
     63 H          13.5533   13.1589    3.9396 H       1  UNL1        0.0000
     64 C          12.2438   12.4991    5.4941 C.ar    1  UNL1        0.0000
     65 C          13.2628   11.1106    8.8966 C.3     1  UNL1        0.0000
     66 H          12.3168   11.4785    9.3324 H       1  UNL1        0.0000
     67 C          14.4023   11.5618    9.8070 C.3     1  UNL1        0.0000
     68 H          14.1906   11.2696   10.8333 H       1  UNL1        0.0000
     69 H          14.5129   12.6426    9.7714 H       1  UNL1        0.0000
     70 H          15.3455   11.1024    9.5203 H       1  UNL1        0.0000
     71 C          13.2025    9.5814    8.8425 C.3     1  UNL1        0.0000
     72 H          12.3309    9.2478    8.2853 H       1  UNL1        0.0000
     73 H          13.1447    9.1699    9.8482 H       1  UNL1        0.0000
     74 H          14.0939    9.1864    8.3579 H       1  UNL1        0.0000
     75 C          10.9908   12.8686    4.7313 C.3     1  UNL1        0.0000
     76 H          10.1184   12.5228    5.2930 H       1  UNL1        0.0000
     77 C          10.8787   14.3901    4.6043 C.3     1  UNL1        0.0000
     78 H          10.8227   14.8429    5.5904 H       1  UNL1        0.0000
     79 H           9.9791   14.6536    4.0519 H       1  UNL1        0.0000
     80 H          11.7393   14.8006    4.0812 H       1  UNL1        0.0000
     81 C          10.9621   12.2180    3.3457 C.3     1  UNL1        0.0000
     82 H           9.9925   12.3807    2.8792 H       1  UNL1        0.0000
     83 H          11.1384   11.1468    3.4128 H       1  UNL1        0.0000
     84 H          11.7228   12.6468    2.6983 H       1  UNL1        0.0000
@<TRIPOS>BOND
     1    84    81    1
     2    82    81    1
     3    81    83    1
     4    81    75    1
     5    63    62    1
     6    79    77    1
     7    80    77    1
     8    77    75    1
     9    77    78    1
    10    75    76    1
    11    75    64    1
    12    62    64   ar
    13    62    60   ar
    14    25    23    1
    15    61    60    1
    16    64    56   ar
    17    60    58   ar
    18    24    23    1
    19    23    26    1
    20    23    21    1
    21    56    22    1
    22    56    57   ar
    23    13    12    1
    24    58    59    1
    25    58    57   ar
    26    21    22    1
    27    21    14    2
    28    22     1    1
    29    57    65    1
    30    41    38    1
    31    12    14    1
    32    12    10    2
    33     3     2    1
    34    14     6    1
    35    39    38    1
    36    11    10    1
    37    72    71    1
    38    74    71    1
    39    10     8    1
    40    38    40    1
    41    38    36    1
    42     2     1    1
    43     2     5    1
    44     2     4    1
    45     6     1    1
    46     6     7    1
    47     1    16    1
    48    71    65    1
    49    71    73    1
    50    65    66    1
    51    65    67    1
    52    37    36    1
    53    44    42    1
    54     8     7    2
    55     8     9    1
    56     7    15    1
    57    36    42    1
    58    36    28    1
    59    70    67    1
    60    69    67    1
    61    67    68    1
    62    42    45    1
    63    42    43    1
    64    16    15    1
    65    16    27    1
    66    15    17    1
    67    28    27   ar
    68    28    29   ar
    69    20    17    1
    70    27    35   ar
    71    30    29    1
    72    47    46    1
    73    17    19    1
    74    17    18    1
    75    29    31   ar
    76    35    46    1
    77    35    33   ar
    78    53    52    1
    79    46    52    1
    80    46    48    1
    81    31    33   ar
    82    31    32    1
    83    52    54    1
    84    52    55    1
    85    33    34    1
    86    49    48    1
    87    48    51    1
    88    48    50    1
