@<TRIPOS>MOLECULE
CSD_code = XEHSEL | q = 0 | S = 0 | Stoichiometry = C33H38CoN3O | MND = 4
 76 81 0 0 0
SMALL
GASTEIGER

@<TRIPOS>ATOM
      1 CO          2.5795    5.8976    4.5303 Co.oh   1  UNL1        0.0000
      2 O           1.7008    6.9906    3.3823 O.3     1  UNL1        0.0000
      3 N           3.5078    4.8671    5.6938 N.pl3   1  UNL1        0.0000
      4 N           4.1432    6.0114    3.6929 N.pl3   1  UNL1        0.0000
      5 N           1.1764    5.2144    5.3538 N.pl3   1  UNL1        0.0000
      6 C           4.8161    4.6701    5.5134 C.3     1  UNL1        0.0000
      7 C           5.5374    3.8679    6.3799 C.2     1  UNL1        0.0000
      8 H           6.5923    3.7051    6.2275 H       1  UNL1        0.0000
      9 C           4.8784    3.2697    7.4449 C.2     1  UNL1        0.0000
     10 H           5.4182    2.6341    8.1300 H       1  UNL1        0.0000
     11 C           3.5185    3.4945    7.6243 C.2     1  UNL1        0.0000
     12 H           2.9890    3.0425    8.4474 H       1  UNL1        0.0000
     13 C           2.8583    4.3024    6.7205 C.2     1  UNL1        0.0000
     14 C           5.3328    5.4130    4.3044 C.3     1  UNL1        0.0000
     15 C           6.0792    4.4461    3.3699 C.3     1  UNL1        0.0000
     16 H           5.4650    3.5777    3.1505 H       1  UNL1        0.0000
     17 H           7.0000    4.1105    3.8403 H       1  UNL1        0.0000
     18 H           6.3264    4.9477    2.4378 H       1  UNL1        0.0000
     19 C           6.3327    6.4790    4.7972 C.3     1  UNL1        0.0000
     20 H           6.7708    6.9910    3.9469 H       1  UNL1        0.0000
     21 H           7.1277    6.0052    5.3688 H       1  UNL1        0.0000
     22 H           5.8303    7.2030    5.4334 H       1  UNL1        0.0000
     23 C           1.4062    4.7246    6.7171 C.3     1  UNL1        0.0000
     24 C           0.4563    3.6175    7.1808 C.3     1  UNL1        0.0000
     25 H          -0.5742    3.9253    7.0218 H       1  UNL1        0.0000
     26 H           0.6006    3.4313    8.2424 H       1  UNL1        0.0000
     27 H           0.6287    2.6929    6.6400 H       1  UNL1        0.0000
     28 C           1.2975    5.9083    7.7067 C.3     1  UNL1        0.0000
     29 H           1.9135    6.7356    7.3579 H       1  UNL1        0.0000
     30 H           1.6354    5.6066    8.6962 H       1  UNL1        0.0000
     31 H           0.2659    6.2403    7.7695 H       1  UNL1        0.0000
     32 C           4.2343    6.3721    2.3289 C.ar    1  UNL1        0.0000
     33 C           3.8372    5.4834    1.3147 C.ar    1  UNL1        0.0000
     34 C           3.9823    5.8435   -0.0159 C.ar    1  UNL1        0.0000
     35 H           3.6807    5.1435   -0.7828 H       1  UNL1        0.0000
     36 C           4.4876    7.0793   -0.3704 C.ar    1  UNL1        0.0000
     37 H           4.6051    7.3457   -1.4105 H       1  UNL1        0.0000
     38 C           4.7941    7.9859    0.6238 C.ar    1  UNL1        0.0000
     39 H           5.1320    8.9791    0.3635 H       1  UNL1        0.0000
     40 C           4.6612    7.6607    1.9669 C.ar    1  UNL1        0.0000
     41 C           3.1898    4.1697    1.6372 C.3     1  UNL1        0.0000
     42 H           3.8962    3.3424    1.5606 H       1  UNL1        0.0000
     43 H           2.3768    3.9822    0.9387 H       1  UNL1        0.0000
     44 H           2.7778    4.2046    2.6472 H       1  UNL1        0.0000
     45 C           4.9326    8.7399    2.9743 C.3     1  UNL1        0.0000
     46 H           4.5547    8.4594    3.9522 H       1  UNL1        0.0000
     47 H           4.4280    9.6534    2.6635 H       1  UNL1        0.0000
     48 H           5.9988    8.9567    3.0470 H       1  UNL1        0.0000
     49 C          -0.0091    4.8345    4.6997 C.ar    1  UNL1        0.0000
     50 C          -0.1311    3.5858    4.0680 C.ar    1  UNL1        0.0000
     51 C          -1.3141    3.2558    3.4222 C.ar    1  UNL1        0.0000
     52 H          -1.3930    2.2920    2.9386 H       1  UNL1        0.0000
     53 C          -2.3787    4.1342    3.3867 C.ar    1  UNL1        0.0000
     54 H          -3.2938    3.8631    2.8812 H       1  UNL1        0.0000
     55 C          -2.2559    5.3677    3.9970 C.ar    1  UNL1        0.0000
     56 H          -3.0793    6.0675    3.9681 H       1  UNL1        0.0000
     57 C          -1.0897    5.7331    4.6512 C.ar    1  UNL1        0.0000
     58 C           0.9843    2.5772    4.0369 C.3     1  UNL1        0.0000
     59 H           0.6845    1.6625    4.5506 H       1  UNL1        0.0000
     60 H           1.8899    2.9606    4.5015 H       1  UNL1        0.0000
     61 H           1.2103    2.3109    3.0054 H       1  UNL1        0.0000
     62 C          -1.0212    7.0767    5.3117 C.3     1  UNL1        0.0000
     63 H          -1.4916    7.0434    6.2961 H       1  UNL1        0.0000
     64 H          -1.5493    7.8156    4.7131 H       1  UNL1        0.0000
     65 H           0.0105    7.3936    5.4249 H       1  UNL1        0.0000
     66 C           1.6399    8.2876    3.2738 C.ar    1  UNL1        0.0000
     67 C           1.9077    9.1590    4.3474 C.ar    1  UNL1        0.0000
     68 H           2.1960    8.7225    5.3003 H       1  UNL1        0.0000
     69 C           1.8226   10.5259    4.1972 C.ar    1  UNL1        0.0000
     70 H           2.0358   11.1727    5.0381 H       1  UNL1        0.0000
     71 C           1.4691   11.0774    2.9754 C.ar    1  UNL1        0.0000
     72 H           1.4059   12.1494    2.8590 H       1  UNL1        0.0000
     73 C           1.1994   10.2373    1.9044 C.ar    1  UNL1        0.0000
     74 H           0.9273   10.6612    0.9473 H       1  UNL1        0.0000
     75 C           1.2777    8.8695    2.0430 C.ar    1  UNL1        0.0000
     76 H           1.0778    8.2110    1.2111 H       1  UNL1        0.0000
@<TRIPOS>BOND
     1    37    36    1
     2    35    34    1
     3    36    34   ar
     4    36    38   ar
     5    34    33   ar
     6    39    38    1
     7    38    40   ar
     8    43    41    1
     9    74    73    1
    10    76    75    1
    11    33    41    1
    12    33    32   ar
    13    42    41    1
    14    41    44    1
    15    73    75   ar
    16    73    71   ar
    17    40    32   ar
    18    40    45    1
    19    75    66   ar
    20    32     4    1
    21    18    15    1
    22    47    45    1
    23    72    71    1
    24    54    53    1
    25    52    51    1
    26    45    48    1
    27    45    46    1
    28    71    69   ar
    29    61    58    1
    30    16    15    1
    31    66     2    1
    32    66    67   ar
    33    15    17    1
    34    15    14    1
    35     2     1    1
    36    53    51   ar
    37    53    55   ar
    38    51    50   ar
    39     4    14    1
    40     4     1    1
    41    20    19    1
    42    56    55    1
    43    55    57   ar
    44    58    50    1
    45    58    60    1
    46    58    59    1
    47    50    49   ar
    48    69    67   ar
    49    69    70    1
    50    14    19    1
    51    14     6    1
    52    67    68    1
    53     1     5    1
    54     1     3    1
    55    57    49   ar
    56    57    62    1
    57    49     5    1
    58    64    62    1
    59    19    21    1
    60    19    22    1
    61    62    65    1
    62    62    63    1
    63     5    23    1
    64     6     3    1
    65     6     7    1
    66     3    13    1
    67     8     7    1
    68     7     9    2
    69    27    24    1
    70    23    13    1
    71    23    24    1
    72    23    28    1
    73    13    11    2
    74    25    24    1
    75    24    26    1
    76    29    28    1
    77     9    11    1
    78     9    10    1
    79    11    12    1
    80    28    31    1
    81    28    30    1
