@<TRIPOS>MOLECULE
CSD_code = XOZLUT | q = 1 | S = 0 | Stoichiometry = C21H32CoN6O2(1+) | MND = 6
 62 66 0 0 0
SMALL
GASTEIGER

@<TRIPOS>ATOM
      1 CO         14.9715    1.9864    2.3050 Co.oh   1  UNL1        0.0000
      2 C          17.7577    0.7216    2.6787 C.3     1  UNL1        0.0000
      3 H          17.3047    0.2337    3.5302 H       1  UNL1        0.0000
      4 C          19.0349    0.3783    2.2705 C.2     1  UNL1        0.0000
      5 H          19.5898   -0.3719    2.8089 H       1  UNL1        0.0000
      6 C          19.5719    1.0118    1.1610 C.2     1  UNL1        0.0000
      7 H          20.5630    0.7694    0.8108 H       1  UNL1        0.0000
      8 C          18.8042    1.9571    0.5002 C.2     1  UNL1        0.0000
      9 H          19.1825    2.4667   -0.3720 H       1  UNL1        0.0000
     10 C          17.5322    2.2409    0.9745 C.2     1  UNL1        0.0000
     11 C          16.6444    3.2657    0.3264 C.3     1  UNL1        0.0000
     12 H          16.7660    4.2070    0.8787 H       1  UNL1        0.0000
     13 H          16.9604    3.4387   -0.7103 H       1  UNL1        0.0000
     14 C          13.5558    2.2351   -1.3079 C.3     1  UNL1        0.0000
     15 H          13.3007    1.5065   -2.0714 H       1  UNL1        0.0000
     16 H          13.6383    3.2094   -1.7858 H       1  UNL1        0.0000
     17 H          12.7509    2.2587   -0.5781 H       1  UNL1        0.0000
     18 C          14.8750    1.8558   -0.6303 C.3     1  UNL1        0.0000
     19 H          15.6601    1.8107   -1.3994 H       1  UNL1        0.0000
     20 C          14.7506    0.5008    0.0004 C.3     1  UNL1        0.0000
     21 C          14.6255   -0.7140   -0.8512 C.3     1  UNL1        0.0000
     22 H          15.2942   -1.4888   -0.4771 H       1  UNL1        0.0000
     23 H          14.8488   -0.5008   -1.8913 H       1  UNL1        0.0000
     24 H          13.6152   -1.1149   -0.7706 H       1  UNL1        0.0000
     25 C          17.9777    6.4853    2.4019 C.ar    1  UNL1        0.0000
     26 H          18.9407    6.0553    2.1611 H       1  UNL1        0.0000
     27 C          17.8155    7.8483    2.5851 C.ar    1  UNL1        0.0000
     28 H          18.6555    8.5166    2.4945 H       1  UNL1        0.0000
     29 C          16.5479    8.3233    2.8879 C.ar    1  UNL1        0.0000
     30 H          16.3785    9.3781    3.0390 H       1  UNL1        0.0000
     31 C          15.5002    7.4225    3.0012 C.ar    1  UNL1        0.0000
     32 H          14.5026    7.7559    3.2403 H       1  UNL1        0.0000
     33 C          15.7650    6.0740    2.8078 C.ar    1  UNL1        0.0000
     34 C          14.6955    5.0112    2.9020 C.3     1  UNL1        0.0000
     35 H          13.9165    5.3221    3.6007 H       1  UNL1        0.0000
     36 H          14.2167    4.9168    1.9230 H       1  UNL1        0.0000
     37 C          15.2259    1.4598    6.3886 C.3     1  UNL1        0.0000
     38 H          14.6547    2.0736    7.0806 H       1  UNL1        0.0000
     39 H          16.2621    1.4325    6.7244 H       1  UNL1        0.0000
     40 H          14.8396    0.4427    6.3975 H       1  UNL1        0.0000
     41 C          15.1278    2.0029    5.0004 C.3     1  UNL1        0.0000
     42 C          15.1361    3.4843    4.7624 C.3     1  UNL1        0.0000
     43 H          14.1673    3.8824    5.0941 H       1  UNL1        0.0000
     44 C          16.2472    4.1896    5.5406 C.3     1  UNL1        0.0000
     45 H          17.2203    3.7906    5.2601 H       1  UNL1        0.0000
     46 H          16.1136    4.0525    6.6090 H       1  UNL1        0.0000
     47 H          16.2357    5.2575    5.3347 H       1  UNL1        0.0000
     48 C          13.0279    2.2111    2.4438 C.3     1  UNL1        0.0000
     49 H          12.6835    2.9286    1.6998 H       1  UNL1        0.0000
     50 H          12.7308    2.5778    3.4234 H       1  UNL1        0.0000
     51 H          12.5012    1.2731    2.2800 H       1  UNL1        0.0000
     52 N          17.0255    1.6380    2.0523 N.pl3   1  UNL1        0.0000
     53 N          15.2378    2.8499    0.4002 N.4     1  UNL1        0.0000
     54 H          14.6659    3.6741    0.2274 H       1  UNL1        0.0000
     55 N          14.7160    0.4319    1.2774 N.3     1  UNL1        0.0000
     56 N          14.9762    1.2332    3.9834 N.3     1  UNL1        0.0000
     57 N          15.2640    3.7158    3.3092 N.4     1  UNL1        0.0000
     58 H          16.2705    3.8332    3.1269 H       1  UNL1        0.0000
     59 N          16.9801    5.6216    2.5080 N.ar    1  UNL1        0.0000
     60 O          14.5565   -0.7908    1.8046 O.3     1  UNL1        0.0000
     61 H          14.6704   -0.6572    2.8423 H       1  UNL1        0.0000
     62 O          14.9673   -0.0453    4.1154 O.3     1  UNL1        0.0000
@<TRIPOS>BOND
     1    15    14    1
     2    23    21    1
     3    16    14    1
     4    19    18    1
     5    14    18    1
     6    14    17    1
     7    21    24    1
     8    21    22    1
     9    21    20    1
    10    13    11    1
    11    18    20    1
    12    18    53    1
    13     9     8    1
    14    20    55    1
    15    54    53    1
    16    11    53    1
    17    11    12    1
    18    11    10    1
    19    53     1    1
    20     8    10    2
    21     8     6    1
    22     7     6    1
    23    10    52    1
    24     6     4    2
    25    55    60    1
    26    55     1    1
    27    49    48    1
    28    60    61    1
    29    36    34    1
    30    52     1    1
    31    52     2    1
    32    26    25    1
    33     4     2    1
    34     4     5    1
    35    51    48    1
    36     1    48    1
    37     1    57    1
    38     1    56    1
    39    25    59   ar
    40    25    27   ar
    41    48    50    1
    42    28    27    1
    43    59    33   ar
    44    27    29   ar
    45     2     3    1
    46    33    34    1
    47    33    31   ar
    48    29    31   ar
    49    29    30    1
    50    34    57    1
    51    34    35    1
    52    31    32    1
    53    58    57    1
    54    57    42    1
    55    56    62    1
    56    56    41    1
    57    42    41    1
    58    42    43    1
    59    42    44    1
    60    41    37    1
    61    45    44    1
    62    47    44    1
    63    44    46    1
    64    37    40    1
    65    37    39    1
    66    37    38    1
