@<TRIPOS>MOLECULE
CSD_code = XUCVEW | q = 1 | S = 0 | Stoichiometry = C36H45CoN5O4(1+) | MND = 7
 91 96 0 0 0
SMALL
GASTEIGER

@<TRIPOS>ATOM
      1 CO          1.8336    4.5510    5.2238 Co.oh   1  UNL1        0.0000
      2 N           1.4324    2.7084    5.2814 N.ar    1  UNL1        0.0000
      3 C           1.1743    1.8943    4.2153 C.ar    1  UNL1        0.0000
      4 C           0.8680    0.5597    4.6627 C.ar    1  UNL1        0.0000
      5 C           1.0181    0.5641    6.0197 C.ar    1  UNL1        0.0000
      6 C           1.4000    1.9049    6.3843 C.ar    1  UNL1        0.0000
      7 C           1.8165    2.2585    7.6581 C.3     1  UNL1        0.0000
      8 C           2.2227    3.5240    8.0142 C.ar    1  UNL1        0.0000
      9 N           2.0874    4.6154    7.2067 N.ar    1  UNL1        0.0000
     10 C           2.4995    5.6674    7.9454 C.ar    1  UNL1        0.0000
     11 C           2.9599    5.2536    9.2418 C.ar    1  UNL1        0.0000
     12 C           2.7623    3.9021    9.2995 C.ar    1  UNL1        0.0000
     13 C           2.3379    7.0069    7.5383 C.2     1  UNL1        0.0000
     14 N           1.6348    7.2289    6.4861 N.2     1  UNL1        0.0000
     15 C           1.3161    8.4511    6.0014 C.ar    1  UNL1        0.0000
     16 C           1.2073    9.6472    6.7246 C.ar    1  UNL1        0.0000
     17 C           0.8671   10.8176    6.0809 C.ar    1  UNL1        0.0000
     18 C           0.6603   10.8217    4.6601 C.ar    1  UNL1        0.0000
     19 C           0.8020    9.6535    3.9409 C.ar    1  UNL1        0.0000
     20 C           1.1063    8.4566    4.5998 C.ar    1  UNL1        0.0000
     21 N           1.2672    7.2319    4.0421 N.2     1  UNL1        0.0000
     22 C           1.7001    7.0073    2.8532 C.2     1  UNL1        0.0000
     23 C           1.8102    5.6666    2.4329 C.ar    1  UNL1        0.0000
     24 N           1.6566    4.6053    3.2595 N.ar    1  UNL1        0.0000
     25 C           1.6247    3.5095    2.4441 C.ar    1  UNL1        0.0000
     26 C           1.8292    3.8889    1.0690 C.ar    1  UNL1        0.0000
     27 C           1.9570    5.2515    1.0676 C.ar    1  UNL1        0.0000
     28 C           1.3163    2.2405    2.8832 C.3     1  UNL1        0.0000
     29 C           0.5275   -0.5897    3.7760 C.3     1  UNL1        0.0000
     30 C           1.7922   -1.3121    3.3013 C.3     1  UNL1        0.0000
     31 C           0.8056   -0.5576    6.9783 C.3     1  UNL1        0.0000
     32 C          -0.5145   -0.3929    7.7366 C.3     1  UNL1        0.0000
     33 C           3.0723    2.9574   10.4077 C.3     1  UNL1        0.0000
     34 C           4.4104    2.2531   10.1627 C.3     1  UNL1        0.0000
     35 C           3.5024    6.1689   10.2812 C.3     1  UNL1        0.0000
     36 O           0.6989   12.0138    6.6681 O.3     1  UNL1        0.0000
     37 C           0.8732   12.1270    8.0621 C.3     1  UNL1        0.0000
     38 O           0.3312   12.0194    4.1507 O.3     1  UNL1        0.0000
     39 C           0.0959   12.1379    2.7660 C.3     1  UNL1        0.0000
     40 C           2.1574    6.1689   -0.0856 C.3     1  UNL1        0.0000
     41 C           1.8308    2.9563   -0.0919 C.3     1  UNL1        0.0000
     42 C           0.4132    2.7600   -0.6387 C.3     1  UNL1        0.0000
     43 O          -0.1521    5.0995    5.3328 O.3     1  UNL1        0.0000
     44 C          -0.9852    5.0913    6.4827 C.3     1  UNL1        0.0000
     45 O           3.5985    4.6285    5.1411 O.3     1  UNL1        0.0000
     46 C           4.4597    4.2316    4.1351 C.3     1  UNL1        0.0000
     47 H           1.8567    1.4808    8.4046 H       1  UNL1        0.0000
     48 H           2.8060    7.7945    8.1321 H       1  UNL1        0.0000
     49 H           1.3566    9.6289    7.7921 H       1  UNL1        0.0000
     50 H           0.6396    9.6375    2.8751 H       1  UNL1        0.0000
     51 H           1.9937    7.7968    2.1586 H       1  UNL1        0.0000
     52 H           1.1901    1.4643    2.1454 H       1  UNL1        0.0000
     53 H          -0.0430   -0.2413    2.9137 H       1  UNL1        0.0000
     54 H          -0.1004   -1.2929    4.3246 H       1  UNL1        0.0000
     55 H           1.5279   -2.1441    2.6543 H       1  UNL1        0.0000
     56 H           2.4412   -0.6351    2.7508 H       1  UNL1        0.0000
     57 H           2.3490   -1.6980    4.1513 H       1  UNL1        0.0000
     58 H           1.6323   -0.6037    7.6902 H       1  UNL1        0.0000
     59 H           0.7897   -1.5004    6.4315 H       1  UNL1        0.0000
     60 H          -0.6550   -1.2203    8.4269 H       1  UNL1        0.0000
     61 H          -0.5245    0.5369    8.3005 H       1  UNL1        0.0000
     62 H          -1.3496   -0.3792    7.0405 H       1  UNL1        0.0000
     63 H           2.2793    2.2119   10.4947 H       1  UNL1        0.0000
     64 H           3.1196    3.5022   11.3514 H       1  UNL1        0.0000
     65 H           4.6214    1.5581   10.9712 H       1  UNL1        0.0000
     66 H           4.3892    1.7042    9.2243 H       1  UNL1        0.0000
     67 H           5.2157    2.9814   10.1128 H       1  UNL1        0.0000
     68 H           2.7323    6.8563   10.6316 H       1  UNL1        0.0000
     69 H           4.3249    6.7574    9.8774 H       1  UNL1        0.0000
     70 H           3.8705    5.6045   11.1329 H       1  UNL1        0.0000
     71 H           0.6915   13.1743    8.2946 H       1  UNL1        0.0000
     72 H           0.1568   11.5049    8.6069 H       1  UNL1        0.0000
     73 H           1.8921   11.8615    8.3598 H       1  UNL1        0.0000
     74 H          -0.1488   13.1851    2.6003 H       1  UNL1        0.0000
     75 H           0.9866   11.8780    2.1861 H       1  UNL1        0.0000
     76 H          -0.7450   11.5142    2.4482 H       1  UNL1        0.0000
     77 H           2.3916    5.6047   -0.9838 H       1  UNL1        0.0000
     78 H           1.2540    6.7487   -0.2756 H       1  UNL1        0.0000
     79 H           2.9722    6.8644    0.1098 H       1  UNL1        0.0000
     80 H           2.2465    1.9918    0.2039 H       1  UNL1        0.0000
     81 H           2.4640    3.3624   -0.8824 H       1  UNL1        0.0000
     82 H           0.4280    2.0708   -1.4787 H       1  UNL1        0.0000
     83 H          -0.2436    2.3595    0.1299 H       1  UNL1        0.0000
     84 H           0.0038    3.7085   -0.9770 H       1  UNL1        0.0000
     85 H          -0.0171    6.0245    5.0473 H       1  UNL1        0.0000
     86 H          -1.9748    5.4758    6.2214 H       1  UNL1        0.0000
     87 H          -0.5628    5.6892    7.2925 H       1  UNL1        0.0000
     88 H          -1.0809    4.0582    6.8126 H       1  UNL1        0.0000
     89 H           4.3113    3.1777    3.8639 H       1  UNL1        0.0000
     90 H           5.4799    4.3330    4.5272 H       1  UNL1        0.0000
     91 H           4.3755    4.8433    3.2256 H       1  UNL1        0.0000
@<TRIPOS>BOND
     1    82    42    1
     2    77    40    1
     3    84    42    1
     4    81    41    1
     5    42    41    1
     6    42    83    1
     7    78    40    1
     8    41    80    1
     9    41    26    1
    10    40    79    1
    11    40    27    1
    12    27    26   ar
    13    27    23   ar
    14    26    25   ar
    15    52    28    1
    16    51    22    1
    17    75    39    1
    18    23    22    1
    19    23    24   ar
    20    25    28    1
    21    25    24   ar
    22    76    39    1
    23    74    39    1
    24    55    30    1
    25    56    30    1
    26    39    38    1
    27    22    21    2
    28    50    19    1
    29    28     3    1
    30    53    29    1
    31    91    46    1
    32    24     1    1
    33    30    29    1
    34    30    57    1
    35    29    54    1
    36    29     4    1
    37    89    46    1
    38    19    20   ar
    39    19    18   ar
    40    21    20    1
    41    46    90    1
    42    46    45    1
    43    38    18    1
    44     3     4   ar
    45     3     2   ar
    46    20    15   ar
    47    18    17   ar
    48     4     5   ar
    49    85    43    1
    50    45     1    1
    51     1     2    1
    52     1     9    1
    53     2     6   ar
    54    43    44    1
    55    15    14    1
    56    15    16   ar
    57     5     6   ar
    58     5    31    1
    59    17    36    1
    60    17    16   ar
    61    86    44    1
    62     6     7    1
    63    59    31    1
    64    44    88    1
    65    44    87    1
    66    14    13    2
    67    36    37    1
    68    16    49    1
    69    31    58    1
    70    31    32    1
    71    62    32    1
    72     9    10   ar
    73     9     8   ar
    74    13    10    1
    75    13    48    1
    76     7     8    1
    77     7    47    1
    78    32    61    1
    79    32    60    1
    80    10    11   ar
    81     8    12   ar
    82    37    71    1
    83    37    73    1
    84    37    72    1
    85    66    34    1
    86    11    12   ar
    87    11    35    1
    88    12    33    1
    89    69    35    1
    90    67    34    1
    91    34    33    1
    92    34    65    1
    93    35    68    1
    94    35    70    1
    95    33    63    1
    96    33    64    1
