@<TRIPOS>MOLECULE
CSD_code = ZAPQUF | q = 1 | S = 0 | Stoichiometry = C32H26CoN8O2S2(1+) | MND = 6
 71 80 0 0 0
SMALL
GASTEIGER

@<TRIPOS>ATOM
      1 CO         -0.5349    0.9266   22.3436 Co.oh   1  UNL1        0.0000
      2 C          -1.6088    2.2287   24.4802 C.2     1  UNL1        0.0000
      3 S          -1.8317   -3.0872   21.5484 S.3     1  UNL1        0.0000
      4 C          -1.8724    3.1927   25.4621 C.2     1  UNL1        0.0000
      5 H          -2.6566    3.0068   26.1776 H       1  UNL1        0.0000
      6 O           4.0689    0.8079   17.5547 O.3     1  UNL1        0.0000
      7 N          -0.6350    2.4176   23.5512 N.pl3   1  UNL1        0.0000
      8 N          -1.8497    0.2221   23.4175 N.pl3   1  UNL1        0.0000
      9 N          -2.3260   -0.9571   23.1390 N.2     1  UNL1        0.0000
     10 C          -1.1218    4.3462   25.4959 C.2     1  UNL1        0.0000
     11 H          -1.3024    5.1003   26.2456 H       1  UNL1        0.0000
     12 N          -0.7126   -0.7762   21.4675 N.pl3   1  UNL1        0.0000
     13 C          -0.1182    4.5197   24.5463 C.2     1  UNL1        0.0000
     14 H           0.4988    5.4025   24.5412 H       1  UNL1        0.0000
     15 C           0.0851    3.5356   23.5978 C.2     1  UNL1        0.0000
     16 H           0.8618    3.6566   22.8558 H       1  UNL1        0.0000
     17 C          -2.2970    0.9893   24.3710 C.2     1  UNL1        0.0000
     18 H          -3.0973    0.6845   25.0287 H       1  UNL1        0.0000
     19 C          -1.6477   -1.4774   22.1158 C.2     1  UNL1        0.0000
     20 C          -0.5580   -2.7914   20.4126 C.2     1  UNL1        0.0000
     21 H          -0.2403   -3.5560   19.7348 H       1  UNL1        0.0000
     22 C          -0.0852   -1.5237   20.5094 C.2     1  UNL1        0.0000
     23 C           5.4283    0.5084   17.7863 C.3     1  UNL1        0.0000
     24 H           5.6425   -0.5476   17.5988 H       1  UNL1        0.0000
     25 H           5.7259    0.7694   18.8062 H       1  UNL1        0.0000
     26 H           5.9868    1.1191   17.0796 H       1  UNL1        0.0000
     27 C           2.3279   -1.3131   19.9917 C.ar    1  UNL1        0.0000
     28 H           2.5311   -2.0357   20.7690 H       1  UNL1        0.0000
     29 C           3.3791   -0.7474   19.2951 C.ar    1  UNL1        0.0000
     30 H           4.3868   -1.0375   19.5434 H       1  UNL1        0.0000
     31 C           3.1263    0.1838   18.2901 C.ar    1  UNL1        0.0000
     32 C           1.8010    0.5184   17.9921 C.ar    1  UNL1        0.0000
     33 H           1.6199    1.2227   17.1960 H       1  UNL1        0.0000
     34 C           0.7603   -0.0410   18.6969 C.ar    1  UNL1        0.0000
     35 H          -0.2604    0.2197   18.4561 H       1  UNL1        0.0000
     36 C           1.0155   -0.9562   19.7148 C.ar    1  UNL1        0.0000
     37 C          -1.1258    2.5076   20.2071 C.2     1  UNL1        0.0000
     38 S           3.5896    0.0431   23.1390 S.3     1  UNL1        0.0000
     39 C          -1.8289    3.2179   19.2253 C.2     1  UNL1        0.0000
     40 H          -1.2760    3.8042   18.5097 H       1  UNL1        0.0000
     41 O          -2.7343   -3.1196   27.1319 O.3     1  UNL1        0.0000
     42 N          -1.7763    1.7587   21.1361 N.pl3   1  UNL1        0.0000
     43 N           0.7324    1.7131   21.2697 N.pl3   1  UNL1        0.0000
     44 N           1.9919    1.5361   21.5483 N.2     1  UNL1        0.0000
     45 C          -3.2032    3.1445   19.1915 C.2     1  UNL1        0.0000
     46 H          -3.7660    3.6779   18.4418 H       1  UNL1        0.0000
     47 N           1.0286    0.2292   23.2198 N.pl3   1  UNL1        0.0000
     48 C          -3.8552    2.3620   20.1411 C.2     1  UNL1        0.0000
     49 H          -4.9282    2.2690   20.1462 H       1  UNL1        0.0000
     50 C          -3.1046    1.6939   21.0895 C.2     1  UNL1        0.0000
     51 H          -3.5976    1.0817   21.8316 H       1  UNL1        0.0000
     52 C           0.2916    2.4840   20.3163 C.2     1  UNL1        0.0000
     53 H           0.9557    3.0247   19.6586 H       1  UNL1        0.0000
     54 C           2.1034    0.6885   22.5714 C.2     1  UNL1        0.0000
     55 C           2.6966   -0.9120   24.2748 C.2     1  UNL1        0.0000
     56 H           3.2000   -1.5693   24.9527 H       1  UNL1        0.0000
     57 C           1.3623   -0.6878   24.1780 C.2     1  UNL1        0.0000
     58 C          -3.1550   -4.4465   26.8998 C.3     1  UNL1        0.0000
     59 H          -2.3477   -5.1603   27.0873 H       1  UNL1        0.0000
     60 H          -3.5296   -4.5733   25.8798 H       1  UNL1        0.0000
     61 H          -3.9633   -4.6248   27.6064 H       1  UNL1        0.0000
     62 C          -0.0267   -2.6723   24.6953 C.ar    1  UNL1        0.0000
     63 H           0.4975   -3.2095   23.9179 H       1  UNL1        0.0000
     64 C          -1.0423   -3.2998   25.3917 C.ar    1  UNL1        0.0000
     65 H          -1.2950   -4.3175   25.1432 H       1  UNL1        0.0000
     66 C          -1.7224   -2.6154   26.3967 C.ar    1  UNL1        0.0000
     67 C          -1.3494   -1.3005   26.6951 C.ar    1  UNL1        0.0000
     68 H          -1.8688   -0.7916   27.4912 H       1  UNL1        0.0000
     69 C          -0.3445   -0.6789   25.9905 C.ar    1  UNL1        0.0000
     70 H          -0.0599    0.3354   26.2315 H       1  UNL1        0.0000
     71 C           0.3205   -1.3573   24.9725 C.ar    1  UNL1        0.0000
@<TRIPOS>BOND
     1    26    23    1
     2    33    32    1
     3     6    23    1
     4     6    31    1
     5    24    23    1
     6    23    25    1
     7    32    31   ar
     8    32    34   ar
     9    31    29   ar
    10    46    45    1
    11    35    34    1
    12    40    39    1
    13    34    36   ar
    14    45    39    2
    15    45    48    1
    16    39    37    1
    17    29    30    1
    18    29    27   ar
    19    53    52    1
    20    36    27   ar
    21    36    22    1
    22    21    20    1
    23    27    28    1
    24    48    49    1
    25    48    50    2
    26    37    52    2
    27    37    42    1
    28    52    43    1
    29    20    22    2
    30    20     3    1
    31    22    12    1
    32    50    42    1
    33    50    51    1
    34    42     1    1
    35    43    44    1
    36    43     1    1
    37    12    19    1
    38    12     1    1
    39    44    54    2
    40     3    19    1
    41    19     9    2
    42     1    47    1
    43     1     8    1
    44     1     7    1
    45    54    38    1
    46    54    47    1
    47    16    15    1
    48     9     8    1
    49    38    55    1
    50    47    57    1
    51     8    17    1
    52     7    15    1
    53     7     2    1
    54    15    13    2
    55    63    62    1
    56    57    55    2
    57    57    71    1
    58    55    56    1
    59    17     2    2
    60    17    18    1
    61     2     4    1
    62    14    13    1
    63    13    10    1
    64    62    71   ar
    65    62    64   ar
    66    71    69   ar
    67    65    64    1
    68    64    66   ar
    69     4    10    2
    70     4     5    1
    71    10    11    1
    72    60    58    1
    73    69    70    1
    74    69    67   ar
    75    66    67   ar
    76    66    41    1
    77    67    68    1
    78    58    59    1
    79    58    41    1
    80    58    61    1
