@<TRIPOS>MOLECULE
CSD_code = ZINYIE | q = 0 | S = 0 | Stoichiometry = C23H34BCoN6O2 | MND = 5
 67 71 0 0 0
SMALL
GASTEIGER

@<TRIPOS>ATOM
      1 CO          0.6677    4.1198    0.4216 Co.oh   1  UNL1        0.0000
      2 B          -2.4237    3.7979    0.2771 B       1  UNL1        0.0000
      3 N          -0.6538    5.4348    0.9988 N.pl3   1  UNL1        0.0000
      4 N          -1.9491    5.0785    0.9891 N.3     1  UNL1        0.0000
      5 N          -0.6046    2.4808    1.2891 N.pl3   1  UNL1        0.0000
      6 N          -1.9197    2.5930    1.0679 N.3     1  UNL1        0.0000
      7 N          -0.4091    4.0739   -1.2054 N.pl3   1  UNL1        0.0000
      8 N          -1.7201    3.8030   -1.0930 N.3     1  UNL1        0.0000
      9 O           2.8850    2.5557   -0.5573 O.3     1  UNL1        0.0000
     10 O           2.5414    4.5109    2.5799 O.3     1  UNL1        0.0000
     11 C           1.9823    3.1925   -0.2414 C.3     1  UNL1        0.0000
     12 C           1.7646    4.4234    1.7376 C.3     1  UNL1        0.0000
     13 C          -4.1663    5.9697    1.7235 C.3     1  UNL1        0.0000
     14 C          -2.6917    6.0447    1.5548 C.3     1  UNL1        0.0000
     15 C          -1.8377    7.0662    1.9266 C.2     1  UNL1        0.0000
     16 C          -0.5612    6.6440    1.5509 C.2     1  UNL1        0.0000
     17 C           0.7161    7.4141    1.6598 C.3     1  UNL1        0.0000
     18 C           0.5919    8.7366    0.8992 C.3     1  UNL1        0.0000
     19 C           1.0765    7.6627    3.1249 C.3     1  UNL1        0.0000
     20 C          -4.0458    1.3693    1.5434 C.3     1  UNL1        0.0000
     21 C          -2.5718    1.5496    1.6139 C.3     1  UNL1        0.0000
     22 C          -1.6248    0.7377    2.2092 C.2     1  UNL1        0.0000
     23 C          -0.3960    1.3669    1.9781 C.2     1  UNL1        0.0000
     24 C           0.9681    0.9215    2.3936 C.3     1  UNL1        0.0000
     25 C           1.3305   -0.3909    1.6959 C.3     1  UNL1        0.0000
     26 C           1.0453    0.7721    3.9135 C.3     1  UNL1        0.0000
     27 C          -3.6977    3.3628   -2.5574 C.3     1  UNL1        0.0000
     28 C          -2.2662    3.6791   -2.3143 C.3     1  UNL1        0.0000
     29 C          -1.2663    3.8950   -3.2442 C.2     1  UNL1        0.0000
     30 C          -0.1113    4.1478   -2.5020 C.2     1  UNL1        0.0000
     31 C           1.2407    4.5125   -3.0267 C.3     1  UNL1        0.0000
     32 C           1.1432    5.7748   -3.8867 C.3     1  UNL1        0.0000
     33 C           1.8403    3.3554   -3.8266 C.3     1  UNL1        0.0000
     34 H          -3.5961    3.7852    0.1553 H       1  UNL1        0.0000
     35 H          -4.5143    6.8456    2.2647 H       1  UNL1        0.0000
     36 H          -4.6650    5.9335    0.7563 H       1  UNL1        0.0000
     37 H          -4.4434    5.0765    2.2802 H       1  UNL1        0.0000
     38 H          -2.1061    7.9876    2.4016 H       1  UNL1        0.0000
     39 H           1.5103    6.8201    1.1904 H       1  UNL1        0.0000
     40 H           0.3293    8.5527   -0.1400 H       1  UNL1        0.0000
     41 H          -0.1772    9.3635    1.3441 H       1  UNL1        0.0000
     42 H           1.5359    9.2759    0.9277 H       1  UNL1        0.0000
     43 H           1.1814    6.7207    3.6576 H       1  UNL1        0.0000
     44 H           2.0168    8.2048    3.1940 H       1  UNL1        0.0000
     45 H           0.3017    8.2498    3.6128 H       1  UNL1        0.0000
     46 H          -4.3694    1.2449    0.5109 H       1  UNL1        0.0000
     47 H          -4.3323    0.4864    2.1085 H       1  UNL1        0.0000
     48 H          -4.5612    2.2350    1.9551 H       1  UNL1        0.0000
     49 H          -1.8018   -0.1786    2.7350 H       1  UNL1        0.0000
     50 H           1.6783    1.6944    2.0783 H       1  UNL1        0.0000
     51 H           2.3366   -0.6993    1.9710 H       1  UNL1        0.0000
     52 H           0.6359   -1.1779    1.9814 H       1  UNL1        0.0000
     53 H           1.2891   -0.2678    0.6160 H       1  UNL1        0.0000
     54 H           2.0509    0.4855    4.2131 H       1  UNL1        0.0000
     55 H           0.7942    1.7123    4.3992 H       1  UNL1        0.0000
     56 H           0.3511    0.0088    4.2575 H       1  UNL1        0.0000
     57 H          -3.8671    3.2461   -3.6246 H       1  UNL1        0.0000
     58 H          -3.9779    2.4410   -2.0513 H       1  UNL1        0.0000
     59 H          -4.3387    4.1606   -2.1854 H       1  UNL1        0.0000
     60 H          -1.3646    3.8736   -4.3104 H       1  UNL1        0.0000
     61 H           1.8892    4.7298   -2.1687 H       1  UNL1        0.0000
     62 H           2.1321    6.0756   -4.2247 H       1  UNL1        0.0000
     63 H           0.5196    5.5967   -4.7595 H       1  UNL1        0.0000
     64 H           0.7101    6.5910   -3.3132 H       1  UNL1        0.0000
     65 H           2.8314    3.6210   -4.1872 H       1  UNL1        0.0000
     66 H           1.9256    2.4664   -3.2065 H       1  UNL1        0.0000
     67 H           1.2122    3.1192   -4.6826 H       1  UNL1        0.0000
@<TRIPOS>BOND
     1    63    32    1
     2    67    33    1
     3    60    29    1
     4    62    32    1
     5    65    33    1
     6    32    64    1
     7    32    31    1
     8    33    66    1
     9    33    31    1
    10    57    27    1
    11    29    30    2
    12    29    28    1
    13    31    30    1
    14    31    61    1
    15    27    28    1
    16    27    59    1
    17    27    58    1
    18    30     7    1
    19    28     8    1
    20     7     8    1
    21     7     1    1
    22     8     2    1
    23     9    11    1
    24    11     1    1
    25    40    18    1
    26    34     2    1
    27     2     4    1
    28     2     6    1
    29     1     3    1
    30     1     5    1
    31     1    12    1
    32    46    20    1
    33    53    25    1
    34    36    13    1
    35    18    42    1
    36    18    41    1
    37    18    17    1
    38     4     3    1
    39     4    14    1
    40     3    16    1
    41     6     5    1
    42     6    21    1
    43    39    17    1
    44     5    23    1
    45    20    21    1
    46    20    48    1
    47    20    47    1
    48    16    17    1
    49    16    15    2
    50    14    13    1
    51    14    15    1
    52    21    22    1
    53    17    19    1
    54    25    51    1
    55    25    52    1
    56    25    24    1
    57    13    35    1
    58    13    37    1
    59    12    10    1
    60    15    38    1
    61    23    22    2
    62    23    24    1
    63    50    24    1
    64    22    49    1
    65    24    26    1
    66    19    44    1
    67    19    45    1
    68    19    43    1
    69    26    54    1
    70    26    56    1
    71    26    55    1
