@<TRIPOS>MOLECULE
CSD_code = ZIXMOI | q = 1 | S = 0 | Stoichiometry = C7H17CoN3O2S(1+) | MND = 6
 31 34 0 0 0
SMALL
GASTEIGER

@<TRIPOS>ATOM
      1 CO          4.5967    8.4144    2.6131 Co.oh   1  UNL1        0.0000
      2 S           4.3314    7.8474    4.7810 S.3     1  UNL1        0.0000
      3 O           6.4019    8.1594    2.8579 O.3     1  UNL1        0.0000
      4 O           8.1854    7.7843    4.1009 O.2     1  UNL1        0.0000
      5 N           4.7837    7.9195    0.6809 N.4     1  UNL1        0.0000
      6 N           2.7256    8.8862    2.1091 N.4     1  UNL1        0.0000
      7 N           4.8802   10.5243    2.5480 N.4     1  UNL1        0.0000
      8 C           3.4492    7.5785    0.1723 C.3     1  UNL1        0.0000
      9 C           2.4959    8.6653    0.6628 C.3     1  UNL1        0.0000
     10 C           2.4643   10.2792    2.5180 C.3     1  UNL1        0.0000
     11 C           3.6377   11.1654    2.0951 C.3     1  UNL1        0.0000
     12 C           6.9970    7.8907    3.9563 C.2     1  UNL1        0.0000
     13 C           6.0754    7.6933    5.2038 C.3     1  UNL1        0.0000
     14 C           4.2052    6.7172    3.4574 C.3     1  UNL1        0.0000
     15 H           5.4282    7.1370    0.5743 H       1  UNL1        0.0000
     16 H           5.1835    8.6856    0.1390 H       1  UNL1        0.0000
     17 H           2.0639    8.2983    2.6133 H       1  UNL1        0.0000
     18 H           5.6779   10.8514    2.0080 H       1  UNL1        0.0000
     19 H           5.0717   10.8014    3.5100 H       1  UNL1        0.0000
     20 H           3.1591    6.6090    0.5812 H       1  UNL1        0.0000
     21 H           3.4260    7.5165   -0.9205 H       1  UNL1        0.0000
     22 H           2.7129    9.5908    0.1282 H       1  UNL1        0.0000
     23 H           1.4573    8.3918    0.4611 H       1  UNL1        0.0000
     24 H           2.3755   10.2996    3.6064 H       1  UNL1        0.0000
     25 H           1.5297   10.6512    2.0857 H       1  UNL1        0.0000
     26 H           3.6706   11.2633    1.0084 H       1  UNL1        0.0000
     27 H           3.5073   12.1675    2.5152 H       1  UNL1        0.0000
     28 H           6.2500    6.7091    5.6387 H       1  UNL1        0.0000
     29 H           6.3126    8.4489    5.9528 H       1  UNL1        0.0000
     30 H           4.9664    5.9435    3.4666 H       1  UNL1        0.0000
     31 H           3.2035    6.3092    3.3561 H       1  UNL1        0.0000
@<TRIPOS>BOND
     1    21     8    1
     2    22     9    1
     3    16     5    1
     4     8    20    1
     5     8     9    1
     6     8     5    1
     7    23     9    1
     8    15     5    1
     9     9     6    1
    10     5     1    1
    11    26    11    1
    12    18     7    1
    13    25    10    1
    14    11    27    1
    15    11    10    1
    16    11     7    1
    17     6    10    1
    18     6     1    1
    19     6    17    1
    20    10    24    1
    21     7     1    1
    22     7    19    1
    23     1     3    1
    24     1    14    1
    25     1     2    1
    26     3    12    1
    27    31    14    1
    28    14    30    1
    29    14     2    1
    30    12     4    2
    31    12    13    1
    32     2    13    1
    33    13    28    1
    34    13    29    1
