@<TRIPOS>MOLECULE
CSD_code = CIXVUB | q = 0 | S = 0 | Stoichiometry = C59H56CoP3Si | MND = 6
 120 130 0 0 0
SMALL
GASTEIGER

@<TRIPOS>ATOM
      1 CO         15.2138    7.3072    9.5475 Co.oh   1  UNL1        0.0000
      2 P          16.6825    8.7633    8.6981 P.3     1  UNL1        0.0000
      3 P          16.7048    5.6970    9.6144 P.3     1  UNL1        0.0000
      4 P          15.8743    8.0280   11.5213 P.3     1  UNL1        0.0000
      5 SI         13.1646    6.3163   10.0217 Si      1  UNL1        0.0000
      6 C          18.4422    8.6214    9.2548 C.3     1  UNL1        0.0000
      7 H          19.0294    8.2022    8.4313 H       1  UNL1        0.0000
      8 H          18.8408    9.6187    9.4597 H       1  UNL1        0.0000
      9 C          18.4001    6.2558   10.1740 C.3     1  UNL1        0.0000
     10 H          18.6337    5.6805   11.0764 H       1  UNL1        0.0000
     11 H          19.1183    5.9580    9.4016 H       1  UNL1        0.0000
     12 C          17.7306    8.2303   11.6475 C.3     1  UNL1        0.0000
     13 H          17.9133    9.3024   11.7679 H       1  UNL1        0.0000
     14 H          18.0531    7.7359   12.5697 H       1  UNL1        0.0000
     15 C          18.6152    7.7393   10.4948 C.3     1  UNL1        0.0000
     16 C          20.0779    7.8849   10.9554 C.3     1  UNL1        0.0000
     17 H          20.7614    7.6054   10.1551 H       1  UNL1        0.0000
     18 H          20.2810    7.2466   11.8137 H       1  UNL1        0.0000
     19 H          20.2926    8.9135   11.2413 H       1  UNL1        0.0000
     20 C          16.2729   10.5156    9.0403 C.ar    1  UNL1        0.0000
     21 C          15.1565   10.9862    8.3500 C.ar    1  UNL1        0.0000
     22 H          14.6384   10.3150    7.6769 H       1  UNL1        0.0000
     23 C          14.7088   12.2793    8.5243 C.ar    1  UNL1        0.0000
     24 H          13.8435   12.6284    7.9800 H       1  UNL1        0.0000
     25 C          15.3688   13.1274    9.3999 C.ar    1  UNL1        0.0000
     26 H          15.0221   14.1402    9.5423 H       1  UNL1        0.0000
     27 C          16.4734   12.6693   10.0935 C.ar    1  UNL1        0.0000
     28 H          16.9902   13.3226   10.7820 H       1  UNL1        0.0000
     29 C          16.9237   11.3719    9.9174 C.ar    1  UNL1        0.0000
     30 H          17.7873   11.0501   10.4819 H       1  UNL1        0.0000
     31 C          16.9482    9.0103    6.8993 C.ar    1  UNL1        0.0000
     32 C          16.2125    8.2936    5.9662 C.ar    1  UNL1        0.0000
     33 H          15.4878    7.5686    6.3107 H       1  UNL1        0.0000
     34 C          16.4132    8.4957    4.6120 C.ar    1  UNL1        0.0000
     35 H          15.8383    7.9295    3.8938 H       1  UNL1        0.0000
     36 C          17.3494    9.4195    4.1811 C.ar    1  UNL1        0.0000
     37 H          17.5100    9.5776    3.1246 H       1  UNL1        0.0000
     38 C          18.0787   10.1481    5.1080 C.ar    1  UNL1        0.0000
     39 H          18.8036   10.8765    4.7737 H       1  UNL1        0.0000
     40 C          17.8779    9.9494    6.4605 C.ar    1  UNL1        0.0000
     41 H          18.4384   10.5313    7.1798 H       1  UNL1        0.0000
     42 C          17.1400    4.9569    7.9943 C.ar    1  UNL1        0.0000
     43 C          16.7447    3.6691    7.6439 C.ar    1  UNL1        0.0000
     44 H          16.2164    3.0524    8.3556 H       1  UNL1        0.0000
     45 C          17.0244    3.1713    6.3840 C.ar    1  UNL1        0.0000
     46 H          16.7163    2.1678    6.1276 H       1  UNL1        0.0000
     47 C          17.6903    3.9493    5.4518 C.ar    1  UNL1        0.0000
     48 H          17.9030    3.5572    4.4682 H       1  UNL1        0.0000
     49 C          18.0752    5.2362    5.7868 C.ar    1  UNL1        0.0000
     50 H          18.5848    5.8599    5.0659 H       1  UNL1        0.0000
     51 C          17.7989    5.7313    7.0469 C.ar    1  UNL1        0.0000
     52 H          18.0852    6.7432    7.2925 H       1  UNL1        0.0000
     53 C          16.6422    4.1420   10.5859 C.ar    1  UNL1        0.0000
     54 C          17.6942    3.2289   10.5315 C.ar    1  UNL1        0.0000
     55 H          18.5521    3.4278    9.9030 H       1  UNL1        0.0000
     56 C          17.6371    2.0600   11.2654 C.ar    1  UNL1        0.0000
     57 H          18.4551    1.3553   11.2162 H       1  UNL1        0.0000
     58 C          16.5326    1.7859   12.0582 C.ar    1  UNL1        0.0000
     59 H          16.4907    0.8669   12.6243 H       1  UNL1        0.0000
     60 C          15.4890    2.6917   12.1212 C.ar    1  UNL1        0.0000
     61 H          14.6267    2.4868   12.7386 H       1  UNL1        0.0000
     62 C          15.5489    3.8653   11.3910 C.ar    1  UNL1        0.0000
     63 H          14.7493    4.5859   11.4437 H       1  UNL1        0.0000
     64 C          15.6170    7.1515   13.1135 C.ar    1  UNL1        0.0000
     65 C          16.3639    6.0142   13.4042 C.ar    1  UNL1        0.0000
     66 H          17.0856    5.6474   12.6882 H       1  UNL1        0.0000
     67 C          16.1955    5.3407   14.5983 C.ar    1  UNL1        0.0000
     68 H          16.7811    4.4551   14.8011 H       1  UNL1        0.0000
     69 C          15.2836    5.8057   15.5309 C.ar    1  UNL1        0.0000
     70 H          15.1608    5.2909   16.4725 H       1  UNL1        0.0000
     71 C          14.5282    6.9302   15.2473 C.ar    1  UNL1        0.0000
     72 H          13.8115    7.2971   15.9669 H       1  UNL1        0.0000
     73 C          14.6779    7.5893   14.0405 C.ar    1  UNL1        0.0000
     74 H          14.0615    8.4490   13.8233 H       1  UNL1        0.0000
     75 C          15.3546    9.6902   12.0994 C.ar    1  UNL1        0.0000
     76 C          14.2587   10.3206   11.5278 C.ar    1  UNL1        0.0000
     77 H          13.7294    9.8328   10.7227 H       1  UNL1        0.0000
     78 C          13.8480   11.5647   11.9719 C.ar    1  UNL1        0.0000
     79 H          12.9956   12.0428   11.5122 H       1  UNL1        0.0000
     80 C          14.5282   12.1932   12.9991 C.ar    1  UNL1        0.0000
     81 H          14.2155   13.1680   13.3436 H       1  UNL1        0.0000
     82 C          15.6074   11.5605   13.5955 C.ar    1  UNL1        0.0000
     83 H          16.1304   12.0378   14.4122 H       1  UNL1        0.0000
     84 C          16.0133   10.3150   13.1573 C.ar    1  UNL1        0.0000
     85 H          16.8354    9.8200   13.6564 H       1  UNL1        0.0000
     86 C          12.9431    4.4423    9.6416 C.ar    1  UNL1        0.0000
     87 C          12.0776    3.6279   10.3629 C.ar    1  UNL1        0.0000
     88 H          11.5317    4.0362   11.2002 H       1  UNL1        0.0000
     89 C          11.8944    2.2989   10.0251 C.ar    1  UNL1        0.0000
     90 H          11.2210    1.6835   10.6062 H       1  UNL1        0.0000
     91 C          12.5635    1.7569    8.9416 C.ar    1  UNL1        0.0000
     92 H          12.4218    0.7183    8.6772 H       1  UNL1        0.0000
     93 C          13.4041    2.5613    8.1922 C.ar    1  UNL1        0.0000
     94 H          13.9144    2.1552    7.3291 H       1  UNL1        0.0000
     95 C          13.5865    3.8860    8.5437 C.ar    1  UNL1        0.0000
     96 H          14.2381    4.5113    7.9499 H       1  UNL1        0.0000
     97 C          11.6780    6.9380    8.9583 C.ar    1  UNL1        0.0000
     98 C          10.3877    6.5741    9.3314 C.ar    1  UNL1        0.0000
     99 H          10.2425    5.9809   10.2223 H       1  UNL1        0.0000
    100 C           9.2868    6.9619    8.5906 C.ar    1  UNL1        0.0000
    101 H           8.2943    6.6681    8.9039 H       1  UNL1        0.0000
    102 C           9.4534    7.7254    7.4473 C.ar    1  UNL1        0.0000
    103 H           8.5947    8.0304    6.8655 H       1  UNL1        0.0000
    104 C          10.7288    8.0932    7.0570 C.ar    1  UNL1        0.0000
    105 H          10.8702    8.6883    6.1647 H       1  UNL1        0.0000
    106 C          11.8233    7.7001    7.8074 C.ar    1  UNL1        0.0000
    107 H          12.8143    7.9948    7.4942 H       1  UNL1        0.0000
    108 C          12.4536    6.6338   11.7790 C.ar    1  UNL1        0.0000
    109 C          12.5215    5.7242   12.8267 C.ar    1  UNL1        0.0000
    110 H          13.0771    4.8051   12.7120 H       1  UNL1        0.0000
    111 C          11.8798    5.9610   14.0302 C.ar    1  UNL1        0.0000
    112 H          11.9286    5.2227   14.8191 H       1  UNL1        0.0000
    113 C          11.1794    7.1378   14.2248 C.ar    1  UNL1        0.0000
    114 H          10.6743    7.3241   15.1624 H       1  UNL1        0.0000
    115 C          11.1324    8.0755   13.2065 C.ar    1  UNL1        0.0000
    116 H          10.5959    9.0035   13.3500 H       1  UNL1        0.0000
    117 C          11.7555    7.8171   12.0005 C.ar    1  UNL1        0.0000
    118 H          11.6830    8.5401   11.2015 H       1  UNL1        0.0000
    119 H          14.2926    8.3818    9.4060 H       1  UNL1        0.0000
    120 H          14.8430    6.8673    8.2392 H       1  UNL1        0.0000
@<TRIPOS>BOND
     1    37    36    1
     2    35    34    1
     3    36    34   ar
     4    36    38   ar
     5    48    47    1
     6    34    32   ar
     7    39    38    1
     8    50    49    1
     9    38    40   ar
    10    47    49   ar
    11    47    45   ar
    12    49    51   ar
    13    32    33    1
    14    32    31   ar
    15    46    45    1
    16   105   104    1
    17    45    43   ar
    18    40    31   ar
    19    40    41    1
    20   103   102    1
    21    31     2    1
    22    51    52    1
    23    51    42   ar
    24   104   102   ar
    25   104   106   ar
    26    94    93    1
    27   102   100   ar
    28   107   106    1
    29    43    42   ar
    30    43    44    1
    31    22    21    1
    32   106    97   ar
    33    96    95    1
    34    24    23    1
    35    42     3    1
    36    93    95   ar
    37    93    91   ar
    38   120     1    1
    39    21    23   ar
    40    21    20   ar
    41     7     6    1
    42    23    25   ar
    43    95    86   ar
    44   100   101    1
    45   100    98   ar
    46    92    91    1
    47     2    20    1
    48     2     6    1
    49     2     1    1
    50    91    89   ar
    51    97    98   ar
    52    97     5    1
    53    20    29   ar
    54     6     8    1
    55     6    15    1
    56    98    99    1
    57    25    26    1
    58    25    27   ar
    59    11     9    1
    60   119     1    1
    61     1     3    1
    62     1     5    1
    63     1     4    1
    64     3     9    1
    65     3    53    1
    66    86     5    1
    67    86    87   ar
    68    55    54    1
    69    29    27   ar
    70    29    30    1
    71     5   108    1
    72    89    87   ar
    73    89    90    1
    74    27    28    1
    75    17    16    1
    76     9    15    1
    77     9    10    1
    78    87    88    1
    79    15    16    1
    80    15    12    1
    81    54    53   ar
    82    54    56   ar
    83    53    62   ar
    84    77    76    1
    85    16    19    1
    86    16    18    1
    87   118   117    1
    88    57    56    1
    89    56    58   ar
    90    62    63    1
    91    62    60   ar
    92    79    78    1
    93     4    12    1
    94     4    75    1
    95     4    64    1
    96    76    78   ar
    97    76    75   ar
    98    12    13    1
    99    12    14    1
   100   108   117   ar
   101   108   109   ar
   102    78    80   ar
   103   117   115   ar
   104    58    60   ar
   105    58    59    1
   106    75    84   ar
   107    60    61    1
   108    66    65    1
   109   110   109    1
   110   109   111   ar
   111    80    81    1
   112    80    82   ar
   113    64    65   ar
   114    64    73   ar
   115    84    82   ar
   116    84    85    1
   117   115   116    1
   118   115   113   ar
   119    65    67   ar
   120    82    83    1
   121    74    73    1
   122   111   113   ar
   123   111   112    1
   124    73    71   ar
   125   113   114    1
   126    67    68    1
   127    67    69   ar
   128    71    69   ar
   129    71    72    1
   130    69    70    1
