@<TRIPOS>MOLECULE
CSD_code = HOKLOL | q = 0 | S = 0 | Stoichiometry = C31H42CoOP3 | MND = 5
 78 82 0 0 0
SMALL
GASTEIGER

@<TRIPOS>ATOM
      1 CO          0.4130    4.7715    3.3805 Co.oh   1  UNL1        0.0000
      2 P           2.6655    5.1877    2.9667 P.3     1  UNL1        0.0000
      3 P           1.1127    4.0712    5.2846 P.3     1  UNL1        0.0000
      4 P          -0.0936    2.6469    3.0069 P.3     1  UNL1        0.0000
      5 O          -1.0615    7.0181    4.4406 O.3     1  UNL1        0.0000
      6 C           3.0097    6.8310    2.1521 C.3     1  UNL1        0.0000
      7 H           4.0833    7.0397    2.2028 H       1  UNL1        0.0000
      8 C           0.8810    1.5929    4.1460 C.ar    1  UNL1        0.0000
      9 C           2.5677    6.7511    0.6953 C.3     1  UNL1        0.0000
     10 H           3.1451    6.0096    0.1456 H       1  UNL1        0.0000
     11 H           2.6906    7.7161    0.2056 H       1  UNL1        0.0000
     12 H           1.5158    6.4727    0.6512 H       1  UNL1        0.0000
     13 C           1.1269    0.2326    4.0080 C.ar    1  UNL1        0.0000
     14 H           0.7099   -0.3201    3.1793 H       1  UNL1        0.0000
     15 C           2.2487    1.6139    6.1453 C.ar    1  UNL1        0.0000
     16 H           2.6939    2.1561    6.9679 H       1  UNL1        0.0000
     17 C           2.4865    0.2586    5.9929 C.ar    1  UNL1        0.0000
     18 H           3.1150   -0.2617    6.7010 H       1  UNL1        0.0000
     19 C           5.3872    4.7242    1.9374 C.3     1  UNL1        0.0000
     20 H           5.3331    5.5704    1.2580 H       1  UNL1        0.0000
     21 H           6.0216    3.9688    1.4731 H       1  UNL1        0.0000
     22 H           5.8677    5.0340    2.8619 H       1  UNL1        0.0000
     23 C          -0.7678    3.5224    8.9193 C.ar    1  UNL1        0.0000
     24 H          -1.0992    2.7112    9.5519 H       1  UNL1        0.0000
     25 C           1.4492    2.2791    5.2261 C.ar    1  UNL1        0.0000
     26 C           0.3041    4.2782    6.9069 C.ar    1  UNL1        0.0000
     27 C          -0.4409    6.1406    4.0138 C.3     1  UNL1        0.0000
     28 C           1.9258   -0.4273    4.9278 C.ar    1  UNL1        0.0000
     29 H           2.1170   -1.4841    4.8084 H       1  UNL1        0.0000
     30 C          -0.5561    5.8736    8.4931 C.ar    1  UNL1        0.0000
     31 H          -0.7233    6.8984    8.7907 H       1  UNL1        0.0000
     32 C          -0.9841    4.8342    9.3048 C.ar    1  UNL1        0.0000
     33 H          -1.4863    5.0473   10.2369 H       1  UNL1        0.0000
     34 C          -1.0299    2.3406    0.4127 C.3     1  UNL1        0.0000
     35 H          -2.0430    2.0500    0.6806 H       1  UNL1        0.0000
     36 H          -0.8373    1.9972   -0.6030 H       1  UNL1        0.0000
     37 H          -0.9656    3.4281    0.4260 H       1  UNL1        0.0000
     38 C          -0.1282    3.2410    7.7243 C.ar    1  UNL1        0.0000
     39 H           0.0404    2.2117    7.4367 H       1  UNL1        0.0000
     40 C           4.5630    6.1470    4.8910 C.ar    1  UNL1        0.0000
     41 H           5.0692    6.6809    4.1012 H       1  UNL1        0.0000
     42 C           2.7290    4.8166    5.6887 C.ar    1  UNL1        0.0000
     43 C           3.2442    4.8815    6.9784 C.ar    1  UNL1        0.0000
     44 H           2.7143    4.4193    7.8005 H       1  UNL1        0.0000
     45 C           0.0005    1.7508    1.3710 C.3     1  UNL1        0.0000
     46 H          -0.1983    0.6838    1.5155 H       1  UNL1        0.0000
     47 C          -2.1290    2.8241    4.9003 C.3     1  UNL1        0.0000
     48 H          -1.5476    2.3174    5.6695 H       1  UNL1        0.0000
     49 H          -3.1844    2.7218    5.1496 H       1  UNL1        0.0000
     50 H          -1.8766    3.8854    4.9119 H       1  UNL1        0.0000
     51 C           3.3984    5.4354    4.6282 C.ar    1  UNL1        0.0000
     52 C           2.2582    7.9348    2.8846 C.3     1  UNL1        0.0000
     53 H           1.1866    7.7533    2.8283 H       1  UNL1        0.0000
     54 H           2.4692    8.9022    2.4308 H       1  UNL1        0.0000
     55 H           2.5467    7.9744    3.9346 H       1  UNL1        0.0000
     56 C          -1.8434    2.2244    3.5295 C.3     1  UNL1        0.0000
     57 H          -2.4649    2.7515    2.7942 H       1  UNL1        0.0000
     58 C           4.4239    5.5627    7.2173 C.ar    1  UNL1        0.0000
     59 H           4.8259    5.6094    8.2191 H       1  UNL1        0.0000
     60 C           4.0184    4.1083    2.2053 C.3     1  UNL1        0.0000
     61 H           3.5900    3.8018    1.2424 H       1  UNL1        0.0000
     62 C           5.0721    6.2079    6.1770 C.ar    1  UNL1        0.0000
     63 H           5.9763    6.7674    6.3697 H       1  UNL1        0.0000
     64 C           0.0811    5.5964    7.3003 C.ar    1  UNL1        0.0000
     65 H           0.4190    6.4008    6.6590 H       1  UNL1        0.0000
     66 C           4.1777    2.8668    3.0781 C.3     1  UNL1        0.0000
     67 H           4.6872    3.1148    4.0090 H       1  UNL1        0.0000
     68 H           4.7604    2.1040    2.5627 H       1  UNL1        0.0000
     69 H           3.2054    2.4456    3.3277 H       1  UNL1        0.0000
     70 C          -2.1861    0.7381    3.5253 C.3     1  UNL1        0.0000
     71 H          -2.0889    0.2967    2.5368 H       1  UNL1        0.0000
     72 H          -3.2193    0.6080    3.8462 H       1  UNL1        0.0000
     73 H          -1.5489    0.1925    4.2193 H       1  UNL1        0.0000
     74 C           1.4034    1.9314    0.8072 C.3     1  UNL1        0.0000
     75 H           1.6096    2.9965    0.7070 H       1  UNL1        0.0000
     76 H           1.4888    1.4663   -0.1743 H       1  UNL1        0.0000
     77 H           2.1495    1.4882    1.4647 H       1  UNL1        0.0000
     78 H          -0.1232    5.1716    2.1043 H       1  UNL1        0.0000
@<TRIPOS>BOND
     1    36    34    1
     2    76    74    1
     3    10     9    1
     4    11     9    1
     5    34    37    1
     6    34    35    1
     7    34    45    1
     8    12     9    1
     9     9     6    1
    10    75    74    1
    11    74    45    1
    12    74    77    1
    13    61    60    1
    14    20    19    1
    15    45    46    1
    16    45     4    1
    17    21    19    1
    18    19    60    1
    19    19    22    1
    20    78     1    1
    21     6     7    1
    22     6    52    1
    23     6     2    1
    24    60     2    1
    25    60    66    1
    26    54    52    1
    27    71    70    1
    28    68    66    1
    29    57    56    1
    30    53    52    1
    31    52    55    1
    32     2     1    1
    33     2    51    1
    34     4     1    1
    35     4    56    1
    36     4     8    1
    37    66    69    1
    38    66    67    1
    39    14    13    1
    40     1    27    1
    41     1     3    1
    42    70    56    1
    43    70    72    1
    44    70    73    1
    45    56    47    1
    46    13     8   ar
    47    13    28   ar
    48    27     5    1
    49    41    40    1
    50     8    25   ar
    51    51    40   ar
    52    51    42   ar
    53    29    28    1
    54    40    62   ar
    55    47    50    1
    56    47    49    1
    57    47    48    1
    58    28    17   ar
    59    25     3    1
    60    25    15   ar
    61     3    42    1
    62     3    26    1
    63    42    43   ar
    64    17    15   ar
    65    17    18    1
    66    15    16    1
    67    62    63    1
    68    62    58   ar
    69    65    64    1
    70    26    64   ar
    71    26    38   ar
    72    43    58   ar
    73    43    44    1
    74    58    59    1
    75    64    30   ar
    76    39    38    1
    77    38    23   ar
    78    30    31    1
    79    30    32   ar
    80    23    32   ar
    81    23    24    1
    82    32    33    1
