@<TRIPOS>MOLECULE
CSD_code = LIQTEK | q = 1 | S = 0 | Stoichiometry = C43H39CoO2P3(1+) | MND = 5
 88 95 0 0 0
SMALL
GASTEIGER

@<TRIPOS>ATOM
      1 CO          4.8501   21.1805   13.7444 Co.oh   1  UNL1        0.0000
      2 P           6.4060   19.5603   13.5611 P.3     1  UNL1        0.0000
      3 P           3.2557   19.7149   14.5804 P.3     1  UNL1        0.0000
      4 P           5.5607   21.3914   15.8119 P.3     1  UNL1        0.0000
      5 C           6.1272   18.1797   14.7514 C.3     1  UNL1        0.0000
      6 C           3.8836   18.5535   15.8779 C.3     1  UNL1        0.0000
      7 C           5.9393   19.8110   16.6878 C.3     1  UNL1        0.0000
      8 C           5.4082   18.5107   16.0691 C.3     1  UNL1        0.0000
      9 C           5.7085   17.3735   17.0596 C.3     1  UNL1        0.0000
     10 C           4.5831   22.9195   13.6774 C.3     1  UNL1        0.0000
     11 O           4.3749   24.0407   13.5900 O.3     1  UNL1        0.0000
     12 C           4.4286   21.1218   12.0500 C.3     1  UNL1        0.0000
     13 O           4.1348   21.1366   10.9480 O.3     1  UNL1        0.0000
     14 C           8.1158   20.1384   13.7792 C.ar    1  UNL1        0.0000
     15 C           8.9917   19.7782   14.7939 C.ar    1  UNL1        0.0000
     16 C          10.2597   20.3341   14.8399 C.ar    1  UNL1        0.0000
     17 C          10.6652   21.2364   13.8727 C.ar    1  UNL1        0.0000
     18 C           9.8005   21.5882   12.8469 C.ar    1  UNL1        0.0000
     19 C           8.5304   21.0508   12.8077 C.ar    1  UNL1        0.0000
     20 C           6.5553   18.5662   12.0413 C.ar    1  UNL1        0.0000
     21 C           5.3843   18.1817   11.3946 C.ar    1  UNL1        0.0000
     22 C           5.4369   17.3851   10.2669 C.ar    1  UNL1        0.0000
     23 C           6.6627   16.9689    9.7726 C.ar    1  UNL1        0.0000
     24 C           7.8309   17.3445   10.4152 C.ar    1  UNL1        0.0000
     25 C           7.7838   18.1377   11.5481 C.ar    1  UNL1        0.0000
     26 C           2.3736   18.6595   13.3831 C.ar    1  UNL1        0.0000
     27 C           2.5857   17.3012   13.1806 C.ar    1  UNL1        0.0000
     28 C           1.8824   16.6306   12.1937 C.ar    1  UNL1        0.0000
     29 C           0.9750   17.3070   11.3975 C.ar    1  UNL1        0.0000
     30 C           0.7724   18.6665   11.5820 C.ar    1  UNL1        0.0000
     31 C           1.4721   19.3391   12.5634 C.ar    1  UNL1        0.0000
     32 C           1.8130   20.4478   15.4165 C.ar    1  UNL1        0.0000
     33 C           0.9010   19.6312   16.0808 C.ar    1  UNL1        0.0000
     34 C          -0.1955   20.1932   16.7058 C.ar    1  UNL1        0.0000
     35 C          -0.3950   21.5650   16.6651 C.ar    1  UNL1        0.0000
     36 C           0.4977   22.3766   15.9863 C.ar    1  UNL1        0.0000
     37 C           1.5982   21.8183   15.3613 C.ar    1  UNL1        0.0000
     38 C           4.4656   22.3077   16.9432 C.ar    1  UNL1        0.0000
     39 C           3.5684   21.7044   17.8166 C.ar    1  UNL1        0.0000
     40 C           2.7281   22.4776   18.5976 C.ar    1  UNL1        0.0000
     41 C           2.7689   23.8581   18.5100 C.ar    1  UNL1        0.0000
     42 C           3.6625   24.4680   17.6437 C.ar    1  UNL1        0.0000
     43 C           4.5044   23.6996   16.8636 C.ar    1  UNL1        0.0000
     44 C           7.1039   22.3232   16.0497 C.ar    1  UNL1        0.0000
     45 C           7.7221   22.3239   17.2984 C.ar    1  UNL1        0.0000
     46 C           8.8813   23.0501   17.4920 C.ar    1  UNL1        0.0000
     47 C           9.4241   23.7879   16.4511 C.ar    1  UNL1        0.0000
     48 C           8.7996   23.8074   15.2161 C.ar    1  UNL1        0.0000
     49 C           7.6413   23.0782   15.0156 C.ar    1  UNL1        0.0000
     50 H           5.5374   17.4409   14.1974 H       1  UNL1        0.0000
     51 H           7.1041   17.7253   14.9506 H       1  UNL1        0.0000
     52 H           3.4168   18.8497   16.8217 H       1  UNL1        0.0000
     53 H           3.5256   17.5474   15.6430 H       1  UNL1        0.0000
     54 H           5.5686   19.9042   17.7138 H       1  UNL1        0.0000
     55 H           7.0314   19.7553   16.7332 H       1  UNL1        0.0000
     56 H           5.4405   16.4101   16.6310 H       1  UNL1        0.0000
     57 H           5.1447   17.5026   17.9812 H       1  UNL1        0.0000
     58 H           6.7663   17.3478   17.3128 H       1  UNL1        0.0000
     59 H           8.7100   19.0568   15.5475 H       1  UNL1        0.0000
     60 H          10.9351   20.0535   15.6340 H       1  UNL1        0.0000
     61 H          11.6559   21.6615   13.9145 H       1  UNL1        0.0000
     62 H          10.1178   22.2827   12.0840 H       1  UNL1        0.0000
     63 H           7.8391   21.3239   12.0179 H       1  UNL1        0.0000
     64 H           4.4273   18.5072   11.7800 H       1  UNL1        0.0000
     65 H           4.5214   17.0953    9.7736 H       1  UNL1        0.0000
     66 H           6.7077   16.3534    8.8875 H       1  UNL1        0.0000
     67 H           8.7864   17.0183   10.0335 H       1  UNL1        0.0000
     68 H           8.7007   18.4245   12.0419 H       1  UNL1        0.0000
     69 H           3.3012   16.7491   13.7735 H       1  UNL1        0.0000
     70 H           2.0502   15.5741   12.0469 H       1  UNL1        0.0000
     71 H           0.4300   16.7781   10.6311 H       1  UNL1        0.0000
     72 H           0.0717   19.2001   10.9584 H       1  UNL1        0.0000
     73 H           1.3256   20.4026   12.7087 H       1  UNL1        0.0000
     74 H           1.0453   18.5595   16.0978 H       1  UNL1        0.0000
     75 H          -0.9012   19.5600   17.2219 H       1  UNL1        0.0000
     76 H          -1.2526   21.9984   17.1562 H       1  UNL1        0.0000
     77 H           0.3391   23.4433   15.9430 H       1  UNL1        0.0000
     78 H           2.3013   22.4468   14.8288 H       1  UNL1        0.0000
     79 H           3.5129   20.6294   17.9001 H       1  UNL1        0.0000
     80 H           2.0369   21.9969   19.2732 H       1  UNL1        0.0000
     81 H           2.1099   24.4578   19.1183 H       1  UNL1        0.0000
     82 H           3.7043   25.5444   17.5768 H       1  UNL1        0.0000
     83 H           5.2086   24.1787   16.1965 H       1  UNL1        0.0000
     84 H           7.2892   21.7688   18.1191 H       1  UNL1        0.0000
     85 H           9.3600   23.0475   18.4596 H       1  UNL1        0.0000
     86 H          10.3291   24.3541   16.6077 H       1  UNL1        0.0000
     87 H           9.2122   24.3918   14.4080 H       1  UNL1        0.0000
     88 H           7.1518   23.0868   14.0493 H       1  UNL1        0.0000
@<TRIPOS>BOND
     1    66    23    1
     2    23    22   ar
     3    23    24   ar
     4    65    22    1
     5    67    24    1
     6    22    21   ar
     7    24    25   ar
     8    71    29    1
     9    13    12    1
    10    72    30    1
    11    21    64    1
    12    21    20   ar
    13    29    30   ar
    14    29    28   ar
    15    25    20   ar
    16    25    68    1
    17    30    31   ar
    18    63    19    1
    19    20     2    1
    20    70    28    1
    21    12     1    1
    22    62    18    1
    23    28    27   ar
    24    31    73    1
    25    31    26   ar
    26    19    18   ar
    27    19    14   ar
    28    18    17   ar
    29    27    26   ar
    30    27    69    1
    31    26     3    1
    32     2     1    1
    33     2    14    1
    34     2     5    1
    35    11    10    1
    36    10     1    1
    37     1     3    1
    38     1     4    1
    39    14    15   ar
    40    17    61    1
    41    17    16   ar
    42    88    49    1
    43    50     5    1
    44    87    48    1
    45     3    32    1
    46     3     6    1
    47     5    51    1
    48     5     8    1
    49    15    16   ar
    50    15    59    1
    51    78    37    1
    52    16    60    1
    53    49    48   ar
    54    49    44   ar
    55    48    47   ar
    56    37    32   ar
    57    37    36   ar
    58    32    33   ar
    59    53     6    1
    60     4    44    1
    61     4     7    1
    62     4    38    1
    63     6     8    1
    64     6    52    1
    65    77    36    1
    66    36    35   ar
    67    44    45   ar
    68     8     7    1
    69     8     9    1
    70    33    74    1
    71    33    34   ar
    72    83    43    1
    73    47    86    1
    74    47    46   ar
    75    56     9    1
    76    35    34   ar
    77    35    76    1
    78     7    55    1
    79     7    54    1
    80    34    75    1
    81    43    38   ar
    82    43    42   ar
    83    38    39   ar
    84     9    58    1
    85     9    57    1
    86    45    46   ar
    87    45    84    1
    88    46    85    1
    89    82    42    1
    90    42    41   ar
    91    39    79    1
    92    39    40   ar
    93    41    40   ar
    94    41    81    1
    95    40    80    1
