@<TRIPOS>MOLECULE
CSD_code = QEJMOJ | q = 0 | S = 0 | Stoichiometry = C40H32CoN2O3P3 | MND = 5
 81 89 0 0 0
SMALL
GASTEIGER

@<TRIPOS>ATOM
      1 CO          6.1320   11.5672    1.7554 Co.oh   1  UNL1        0.0000
      2 P           7.0340    9.5979    2.2854 P.3     1  UNL1        0.0000
      3 P           5.5960   11.4076    3.8337 P.3     1  UNL1        0.0000
      4 P           7.0284   13.4175    2.6224 P.3     1  UNL1        0.0000
      5 O           6.6890   11.3435    4.8162 O.2     1  UNL1        0.0000
      6 O           3.2171   11.5682    1.5526 O.3     1  UNL1        0.0000
      7 O           7.5531   11.7519   -0.7584 O.3     1  UNL1        0.0000
      8 N           4.4671   10.1425    4.0902 N.pl3   1  UNL1        0.0000
      9 N           4.4374   12.5683    4.3204 N.pl3   1  UNL1        0.0000
     10 C           8.7059    9.5724    2.9776 C.ar    1  UNL1        0.0000
     11 C           9.7621    9.8805    2.1221 C.ar    1  UNL1        0.0000
     12 C          11.0601    9.8680    2.5933 C.ar    1  UNL1        0.0000
     13 C          11.3075    9.5940    3.9295 C.ar    1  UNL1        0.0000
     14 C          10.2550    9.3337    4.7907 C.ar    1  UNL1        0.0000
     15 C           8.9545    9.3130    4.3194 C.ar    1  UNL1        0.0000
     16 C           7.1497    8.4888    0.8336 C.ar    1  UNL1        0.0000
     17 C           8.2285    7.6642    0.5377 C.ar    1  UNL1        0.0000
     18 C           8.1823    6.8355   -0.5701 C.ar    1  UNL1        0.0000
     19 C           7.0623    6.8129   -1.3834 C.ar    1  UNL1        0.0000
     20 C           5.9789    7.6243   -1.0869 C.ar    1  UNL1        0.0000
     21 C           6.0253    8.4575    0.0136 C.ar    1  UNL1        0.0000
     22 C           6.0958    8.4966    3.3874 C.ar    1  UNL1        0.0000
     23 C           6.5562    7.1808    3.4464 C.ar    1  UNL1        0.0000
     24 C           5.8781    6.2050    4.1443 C.ar    1  UNL1        0.0000
     25 C           4.6914    6.5382    4.7802 C.ar    1  UNL1        0.0000
     26 C           4.2218    7.8328    4.7477 C.ar    1  UNL1        0.0000
     27 C           4.9170    8.8492    4.0754 C.ar    1  UNL1        0.0000
     28 C           3.2742   10.5378    4.8004 C.3     1  UNL1        0.0000
     29 C           3.1223   12.0489    4.6109 C.3     1  UNL1        0.0000
     30 C           4.7223   13.9067    4.2670 C.ar    1  UNL1        0.0000
     31 C           3.8516   14.8498    4.8363 C.ar    1  UNL1        0.0000
     32 C           4.1820   16.1838    4.9174 C.ar    1  UNL1        0.0000
     33 C           5.3984   16.6365    4.4279 C.ar    1  UNL1        0.0000
     34 C           6.2363   15.7406    3.8017 C.ar    1  UNL1        0.0000
     35 C           5.9160   14.3855    3.6855 C.ar    1  UNL1        0.0000
     36 C           7.3717   14.6671    1.3313 C.ar    1  UNL1        0.0000
     37 C           6.3426   14.8794    0.4178 C.ar    1  UNL1        0.0000
     38 C           6.4813   15.8086   -0.5940 C.ar    1  UNL1        0.0000
     39 C           7.6573   16.5332   -0.7080 C.ar    1  UNL1        0.0000
     40 C           8.6834   16.3289    0.1983 C.ar    1  UNL1        0.0000
     41 C           8.5444   15.4034    1.2188 C.ar    1  UNL1        0.0000
     42 C           8.5748   13.3439    3.5599 C.ar    1  UNL1        0.0000
     43 C           8.6393   13.6074    4.9220 C.ar    1  UNL1        0.0000
     44 C           9.8515   13.5093    5.5804 C.ar    1  UNL1        0.0000
     45 C          10.9995   13.1675    4.8853 C.ar    1  UNL1        0.0000
     46 C          10.9363   12.9024    3.5269 C.ar    1  UNL1        0.0000
     47 C           9.7243   12.9713    2.8681 C.ar    1  UNL1        0.0000
     48 C           4.3643   11.5855    1.4963 C.3     1  UNL1        0.0000
     49 C           6.9440   11.6857    0.2135 C.3     1  UNL1        0.0000
     50 H           9.5535   10.1208    1.0862 H       1  UNL1        0.0000
     51 H          11.8801   10.0778    1.9211 H       1  UNL1        0.0000
     52 H          12.3223    9.5917    4.3001 H       1  UNL1        0.0000
     53 H          10.4482    9.1384    5.8353 H       1  UNL1        0.0000
     54 H           8.1314    9.1072    4.9871 H       1  UNL1        0.0000
     55 H           9.1088    7.6677    1.1653 H       1  UNL1        0.0000
     56 H           9.0277    6.2018   -0.7968 H       1  UNL1        0.0000
     57 H           7.0337    6.1645   -2.2466 H       1  UNL1        0.0000
     58 H           5.1013    7.6086   -1.7166 H       1  UNL1        0.0000
     59 H           5.1862    9.1024    0.2501 H       1  UNL1        0.0000
     60 H           7.4727    6.9297    2.9299 H       1  UNL1        0.0000
     61 H           6.2595    5.1964    4.1836 H       1  UNL1        0.0000
     62 H           4.1316    5.7843    5.3142 H       1  UNL1        0.0000
     63 H           3.3029    8.0674    5.2616 H       1  UNL1        0.0000
     64 H           2.3994   10.0135    4.3981 H       1  UNL1        0.0000
     65 H           3.3634   10.3033    5.8703 H       1  UNL1        0.0000
     66 H           2.4292   12.2724    3.7884 H       1  UNL1        0.0000
     67 H           2.7214   12.4884    5.5292 H       1  UNL1        0.0000
     68 H           2.9023   14.5276    5.2336 H       1  UNL1        0.0000
     69 H           3.4883   16.8753    5.3727 H       1  UNL1        0.0000
     70 H           5.6751   17.6758    4.5144 H       1  UNL1        0.0000
     71 H           7.1718   16.0876    3.3839 H       1  UNL1        0.0000
     72 H           5.4307   14.3000    0.5117 H       1  UNL1        0.0000
     73 H           5.6766   15.9667   -1.2971 H       1  UNL1        0.0000
     74 H           7.7730   17.2564   -1.5018 H       1  UNL1        0.0000
     75 H           9.5997   16.8953    0.1141 H       1  UNL1        0.0000
     76 H           9.3495   15.2587    1.9256 H       1  UNL1        0.0000
     77 H           7.7420   13.8726    5.4614 H       1  UNL1        0.0000
     78 H           9.9013   13.7044    6.6418 H       1  UNL1        0.0000
     79 H          11.9456   13.1027    5.4029 H       1  UNL1        0.0000
     80 H          11.8321   12.6375    2.9847 H       1  UNL1        0.0000
     81 H           9.6546   12.7429    1.8113 H       1  UNL1        0.0000
@<TRIPOS>BOND
     1    57    19    1
     2    58    20    1
     3    74    39    1
     4    19    20   ar
     5    19    18   ar
     6    73    38    1
     7    20    21   ar
     8    56    18    1
     9     7    49    1
    10    39    38   ar
    11    39    40   ar
    12    38    37   ar
    13    18    17   ar
    14    21    59    1
    15    21    16   ar
    16    75    40    1
    17    40    41   ar
    18    49     1    1
    19    37    72    1
    20    37    36   ar
    21    17    16   ar
    22    17    55    1
    23    16     2    1
    24    50    11    1
    25    41    36   ar
    26    41    76    1
    27    36     4    1
    28    48     6    1
    29    48     1    1
    30     1     2    1
    31     1     4    1
    32     1     3    1
    33    81    47    1
    34    51    12    1
    35    11    12   ar
    36    11    10   ar
    37     2    10    1
    38     2    22    1
    39    12    13   ar
    40     4    42    1
    41     4    35    1
    42    47    46   ar
    43    47    42   ar
    44    60    23    1
    45    10    15   ar
    46    80    46    1
    47    71    34    1
    48    22    23   ar
    49    22    27   ar
    50    23    24   ar
    51    46    45   ar
    52    42    43   ar
    53    35    34   ar
    54    35    30   ar
    55    66    29    1
    56    34    33   ar
    57     3     8    1
    58     3     9    1
    59     3     5    2
    60    13    52    1
    61    13    14   ar
    62    27     8    1
    63    27    26   ar
    64     8    28    1
    65    24    61    1
    66    24    25   ar
    67    30     9    1
    68    30    31   ar
    69    15    14   ar
    70    15    54    1
    71     9    29    1
    72    64    28    1
    73    33    70    1
    74    33    32   ar
    75    29    28    1
    76    29    67    1
    77    26    25   ar
    78    26    63    1
    79    25    62    1
    80    14    53    1
    81    28    65    1
    82    31    32   ar
    83    31    68    1
    84    45    79    1
    85    45    44   ar
    86    32    69    1
    87    43    77    1
    88    43    44   ar
    89    44    78    1
