@<TRIPOS>MOLECULE
CSD_code = SOHJUX | q = 0 | S = 0 | Stoichiometry = C39H36ClCoNP3 | MND = 4
 81 88 0 0 0
SMALL
GASTEIGER

@<TRIPOS>ATOM
      1 CO          4.4437    5.7208   10.6806 Co.oh   1  UNL1        0.0000
      2 P           5.4445    7.4725    9.7902 P.3     1  UNL1        0.0000
      3 P           2.2839    6.5342   10.7489 P.3     1  UNL1        0.0000
      4 P           4.0693    4.9511    8.7073 P.3     1  UNL1        0.0000
      5 CL          4.9843    5.7421   12.6972 Cl      1  UNL1        0.0000
      6 N           3.0955    7.4817    8.2061 N.3     1  UNL1        0.0000
      7 C           6.2168    8.8880   10.6474 C.ar    1  UNL1        0.0000
      8 C           5.8679    2.9332    8.4493 C.ar    1  UNL1        0.0000
      9 H           5.6514    2.8329    9.5072 H       1  UNL1        0.0000
     10 C           5.2310    3.9405    7.7275 C.ar    1  UNL1        0.0000
     11 C           6.0619   10.2264   10.3052 C.ar    1  UNL1        0.0000
     12 H           5.4385   10.5190    9.4735 H       1  UNL1        0.0000
     13 C           0.6940    5.7678   11.2012 C.ar    1  UNL1        0.0000
     14 C           4.1077    8.3301    8.7788 C.3     1  UNL1        0.0000
     15 H           3.6191    9.0416    9.4524 H       1  UNL1        0.0000
     16 H           4.5864    8.8821    7.9595 H       1  UNL1        0.0000
     17 C           0.5308    2.0155    8.7453 C.ar    1  UNL1        0.0000
     18 H          -0.2996    1.3257    8.7766 H       1  UNL1        0.0000
     19 C           2.0040    3.4300    7.4818 C.ar    1  UNL1        0.0000
     20 H           2.3369    3.8193    6.5289 H       1  UNL1        0.0000
     21 C           1.9423    7.2221    9.0258 C.3     1  UNL1        0.0000
     22 H           1.3218    6.5005    8.4883 H       1  UNL1        0.0000
     23 H           1.3764    8.1547    9.1424 H       1  UNL1        0.0000
     24 C           2.1111    8.1050   11.6743 C.ar    1  UNL1        0.0000
     25 C           3.2173    8.6798   12.2853 C.ar    1  UNL1        0.0000
     26 H           4.1601    8.1513   12.2839 H       1  UNL1        0.0000
     27 C           2.6458    3.8079    8.6564 C.ar    1  UNL1        0.0000
     28 C           3.1102    9.9079   12.9144 C.ar    1  UNL1        0.0000
     29 H           3.9806   10.3466   13.3801 H       1  UNL1        0.0000
     30 C           6.7596    7.1417    8.5636 C.ar    1  UNL1        0.0000
     31 C           8.1469    7.6743    6.6779 C.ar    1  UNL1        0.0000
     32 H           8.4410    8.3634    5.8990 H       1  UNL1        0.0000
     33 C           7.4177    5.9226    8.6846 C.ar    1  UNL1        0.0000
     34 H           7.1330    5.2563    9.4906 H       1  UNL1        0.0000
     35 C           0.5262    5.5753   12.5743 C.ar    1  UNL1        0.0000
     36 H           1.2851    5.9527   13.2484 H       1  UNL1        0.0000
     37 C          -0.5808    4.9144   13.0644 C.ar    1  UNL1        0.0000
     38 H          -0.7020    4.7787   14.1292 H       1  UNL1        0.0000
     39 C           7.6677    9.5252   12.4613 C.ar    1  UNL1        0.0000
     40 H           8.2854    9.2518   13.3039 H       1  UNL1        0.0000
     41 C           6.7701    2.0889    7.8342 C.ar    1  UNL1        0.0000
     42 H           7.2620    1.3130    8.4025 H       1  UNL1        0.0000
     43 C           2.2426    3.2555    9.8672 C.ar    1  UNL1        0.0000
     44 H           2.7629    3.5389   10.7778 H       1  UNL1        0.0000
     45 C           3.6107    6.3208    7.5257 C.3     1  UNL1        0.0000
     46 H           4.5205    6.6209    6.9944 H       1  UNL1        0.0000
     47 H           2.8636    5.9775    6.7996 H       1  UNL1        0.0000
     48 C           7.0226    8.5459   11.7309 C.ar    1  UNL1        0.0000
     49 H           7.1105    7.5037   12.0072 H       1  UNL1        0.0000
     50 C           8.4194    5.5709    7.7992 C.ar    1  UNL1        0.0000
     51 H           8.9172    4.6175    7.8969 H       1  UNL1        0.0000
     52 C           7.5109   10.8578   12.1163 C.ar    1  UNL1        0.0000
     53 H           8.0082   11.6283   12.6873 H       1  UNL1        0.0000
     54 C           1.8927   10.5652   12.9467 C.ar    1  UNL1        0.0000
     55 H           1.8049   11.5228   13.4392 H       1  UNL1        0.0000
     56 C           6.7090   11.2035   11.0414 C.ar    1  UNL1        0.0000
     57 H           6.5838   12.2433   10.7743 H       1  UNL1        0.0000
     58 C          -1.5336    4.4176   12.1871 C.ar    1  UNL1        0.0000
     59 H          -2.4015    3.8979   12.5657 H       1  UNL1        0.0000
     60 C           8.7745    6.4429    6.7845 C.ar    1  UNL1        0.0000
     61 H           9.5489    6.1708    6.0823 H       1  UNL1        0.0000
     62 C           5.5037    4.0854    6.3739 C.ar    1  UNL1        0.0000
     63 H           5.0187    4.8529    5.7892 H       1  UNL1        0.0000
     64 C           0.8857    8.7678   11.7147 C.ar    1  UNL1        0.0000
     65 H           0.0146    8.3189   11.2555 H       1  UNL1        0.0000
     66 C          -1.3628    4.5814   10.8236 C.ar    1  UNL1        0.0000
     67 H          -2.0967    4.1862   10.1355 H       1  UNL1        0.0000
     68 C           7.1493    8.0299    7.5669 C.ar    1  UNL1        0.0000
     69 H           6.6843    9.0027    7.4867 H       1  UNL1        0.0000
     70 C          -0.2532    5.2443   10.3286 C.ar    1  UNL1        0.0000
     71 H          -0.1408    5.3432    9.2586 H       1  UNL1        0.0000
     72 C           1.1884    2.3623    9.9134 C.ar    1  UNL1        0.0000
     73 H           0.8761    1.9436   10.8585 H       1  UNL1        0.0000
     74 C           7.0474    2.2463    6.4852 C.ar    1  UNL1        0.0000
     75 H           7.7581    1.5942    5.9991 H       1  UNL1        0.0000
     76 C           0.7801    9.9889   12.3524 C.ar    1  UNL1        0.0000
     77 H          -0.1740   10.4957   12.3858 H       1  UNL1        0.0000
     78 C           0.9432    2.5445    7.5320 C.ar    1  UNL1        0.0000
     79 H           0.4381    2.2604    6.6197 H       1  UNL1        0.0000
     80 C           6.4131    3.2405    5.7608 C.ar    1  UNL1        0.0000
     81 H           6.6272    3.3612    4.7086 H       1  UNL1        0.0000
@<TRIPOS>BOND
     1    81    80    1
     2    80    62   ar
     3    80    74   ar
     4    63    62    1
     5    32    31    1
     6    75    74    1
     7    61    60    1
     8    62    10   ar
     9    74    41   ar
    10    20    19    1
    11    79    78    1
    12    31    60   ar
    13    31    68   ar
    14    60    50   ar
    15    47    45    1
    16    46    45    1
    17    19    78   ar
    18    19    27   ar
    19    69    68    1
    20    45     6    1
    21    45     4    1
    22    78    17   ar
    23    68    30   ar
    24    10     8   ar
    25    10     4    1
    26    50    51    1
    27    50    33   ar
    28    41    42    1
    29    41     8   ar
    30    16    14    1
    31     6    14    1
    32     6    21    1
    33     8     9    1
    34    22    21    1
    35    30    33   ar
    36    30     2    1
    37    27     4    1
    38    27    43   ar
    39    33    34    1
    40     4     1    1
    41    17    18    1
    42    17    72   ar
    43    14    15    1
    44    14     2    1
    45    21    23    1
    46    21     3    1
    47    71    70    1
    48    12    11    1
    49     2     7    1
    50     2     1    1
    51    43    72   ar
    52    43    44    1
    53    72    73    1
    54    67    66    1
    55    11     7   ar
    56    11    56   ar
    57    70    66   ar
    58    70    13   ar
    59     7    48   ar
    60     1     3    1
    61     1     5    1
    62     3    13    1
    63     3    24    1
    64    57    56    1
    65    66    58   ar
    66    56    52   ar
    67    13    35   ar
    68    65    64    1
    69    24    64   ar
    70    24    25   ar
    71    64    76   ar
    72    48    49    1
    73    48    39   ar
    74    52    39   ar
    75    52    53    1
    76    58    59    1
    77    58    37   ar
    78    26    25    1
    79    25    28   ar
    80    76    77    1
    81    76    54   ar
    82    39    40    1
    83    35    37   ar
    84    35    36    1
    85    28    54   ar
    86    28    29    1
    87    54    55    1
    88    37    38    1
