@<TRIPOS>MOLECULE
CSD_code = XUJXUV | q = 1 | S = 0 | Stoichiometry = C16H34ClCoO2P3(1+) | MND = 6
 57 59 0 0 0
SMALL
GASTEIGER

@<TRIPOS>ATOM
      1 CO          8.8223   17.0258    0.2655 Co.oh   1  UNL1        0.0000
      2 CL          9.1151   17.7311   -1.7646 Cl      1  UNL1        0.0000
      3 P           8.5688   16.3960    2.3689 P.3     1  UNL1        0.0000
      4 P           9.1418   19.1093    0.9145 P.3     1  UNL1        0.0000
      5 P           6.6620   17.4676    0.1432 P.3     1  UNL1        0.0000
      6 O           8.4441   15.3094   -0.3763 O.2     1  UNL1        0.0000
      7 O          10.6602   16.7208    0.3916 O.3     1  UNL1        0.0000
      8 C           6.1214   19.4695    3.7933 C.3     1  UNL1        0.0000
      9 H           6.7251   19.6566    4.6783 H       1  UNL1        0.0000
     10 H           5.2529   18.8870    4.0919 H       1  UNL1        0.0000
     11 H           5.7726   20.4265    3.4125 H       1  UNL1        0.0000
     12 C           6.9368   18.7239    2.7259 C.3     1  UNL1        0.0000
     13 C           7.2624   17.3269    3.2798 C.3     1  UNL1        0.0000
     14 H           6.3520   16.7217    3.2760 H       1  UNL1        0.0000
     15 H           7.5972   17.4170    4.3179 H       1  UNL1        0.0000
     16 C           8.2198   19.5304    2.4648 C.3     1  UNL1        0.0000
     17 H           8.8994   19.4013    3.3110 H       1  UNL1        0.0000
     18 H           7.9697   20.5938    2.4032 H       1  UNL1        0.0000
     19 C           6.0733   18.6283    1.4584 C.3     1  UNL1        0.0000
     20 H           5.9935   19.6222    1.0101 H       1  UNL1        0.0000
     21 H           5.0631   18.3085    1.7323 H       1  UNL1        0.0000
     22 C           8.1271   14.6495    2.6628 C.3     1  UNL1        0.0000
     23 H           7.8454   14.5094    3.7068 H       1  UNL1        0.0000
     24 H           9.0026   14.0399    2.4374 H       1  UNL1        0.0000
     25 H           7.3162   14.3367    2.0097 H       1  UNL1        0.0000
     26 C          10.0230   16.5330    3.4676 C.3     1  UNL1        0.0000
     27 H           9.7864   16.0800    4.4310 H       1  UNL1        0.0000
     28 H          10.3093   17.5716    3.6132 H       1  UNL1        0.0000
     29 H          10.8567   15.9995    3.0123 H       1  UNL1        0.0000
     30 C          10.8635   19.5482    1.3049 C.3     1  UNL1        0.0000
     31 H          11.3197   18.8082    1.9570 H       1  UNL1        0.0000
     32 H          10.8967   20.5363    1.7647 H       1  UNL1        0.0000
     33 H          11.4092   19.5605    0.3612 H       1  UNL1        0.0000
     34 C           8.7082   20.5018   -0.1806 C.3     1  UNL1        0.0000
     35 H           9.0373   21.4280    0.2922 H       1  UNL1        0.0000
     36 H           7.6374   20.5458   -0.3639 H       1  UNL1        0.0000
     37 H           9.2236   20.3669   -1.1304 H       1  UNL1        0.0000
     38 C           5.9896   18.2017   -1.3787 C.3     1  UNL1        0.0000
     39 H           6.5820   19.0543   -1.7004 H       1  UNL1        0.0000
     40 H           4.9502   18.4904   -1.2179 H       1  UNL1        0.0000
     41 H           6.0499   17.4425   -2.1588 H       1  UNL1        0.0000
     42 C           5.5345   16.0412    0.3153 C.3     1  UNL1        0.0000
     43 H           4.5135   16.3726    0.1234 H       1  UNL1        0.0000
     44 H           5.5958   15.6012    1.3074 H       1  UNL1        0.0000
     45 H           5.8189   15.2958   -0.4256 H       1  UNL1        0.0000
     46 C           8.7597   13.2690   -1.5176 C.3     1  UNL1        0.0000
     47 H           7.7010   13.1546   -1.3009 H       1  UNL1        0.0000
     48 H           9.3040   12.3874   -1.1910 H       1  UNL1        0.0000
     49 H           8.8876   13.3676   -2.5944 H       1  UNL1        0.0000
     50 C           9.3015   14.5067   -0.8529 C.2     1  UNL1        0.0000
     51 C          10.6832   14.6744   -0.7955 C.2     1  UNL1        0.0000
     52 H          11.3148   13.9304   -1.2489 H       1  UNL1        0.0000
     53 C          11.2782   15.7685   -0.1723 C.3     1  UNL1        0.0000
     54 C          12.7821   15.8377   -0.1325 C.3     1  UNL1        0.0000
     55 H          13.1492   16.0370   -1.1377 H       1  UNL1        0.0000
     56 H          13.2012   14.8913    0.1991 H       1  UNL1        0.0000
     57 H          13.1063   16.6404    0.5248 H       1  UNL1        0.0000
@<TRIPOS>BOND
     1    49    46    1
     2    41    38    1
     3     2     1    1
     4    39    38    1
     5    46    47    1
     6    46    48    1
     7    46    50    1
     8    38    40    1
     9    38     5    1
    10    52    51    1
    11    55    54    1
    12    37    34    1
    13    50    51    2
    14    50     6    1
    15    51    53    1
    16    45    42    1
    17     6     1    1
    18    36    34    1
    19    34    35    1
    20    34     4    1
    21    53    54    1
    22    53     7    1
    23    54    56    1
    24    54    57    1
    25    43    42    1
    26     5     1    1
    27     5    42    1
    28     5    19    1
    29     1     7    1
    30     1     4    1
    31     1     3    1
    32    42    44    1
    33    33    30    1
    34     4    30    1
    35     4    16    1
    36    20    19    1
    37    30    32    1
    38    30    31    1
    39    19    21    1
    40    19    12    1
    41    25    22    1
    42     3    22    1
    43     3    13    1
    44     3    26    1
    45    18    16    1
    46    24    22    1
    47    16    12    1
    48    16    17    1
    49    22    23    1
    50    12    13    1
    51    12     8    1
    52    29    26    1
    53    14    13    1
    54    13    15    1
    55    11     8    1
    56    26    28    1
    57    26    27    1
    58     8    10    1
    59     8     9    1
