@<TRIPOS>MOLECULE
CSD_code = SIVQIY | q = 0 | S = 0 | Stoichiometry = C34H55CoN2O4Se | MND = 6
 97 100 0 0 0
SMALL
GASTEIGER

@<TRIPOS>ATOM
      1 CO         12.3057   14.4797    4.7869 Co.oh   1  UNL1        0.0000
      2 SE         12.4271   12.2918    5.5044 Se      1  UNL1        0.0000
      3 N          13.6796   14.2172    3.3565 N.4     1  UNL1        0.0000
      4 H          14.6092   14.1326    3.7657 H       1  UNL1        0.0000
      5 H          13.4389   13.3246    2.9051 H       1  UNL1        0.0000
      6 C          13.6429   15.3272    2.4059 C.3     1  UNL1        0.0000
      7 H          14.5635   15.3930    1.8125 H       1  UNL1        0.0000
      8 H          12.8063   15.1707    1.7215 H       1  UNL1        0.0000
      9 C          13.4400   16.6113    3.2066 C.3     1  UNL1        0.0000
     10 H          13.3602   17.4811    2.5395 H       1  UNL1        0.0000
     11 H          14.3058   16.7494    3.8586 H       1  UNL1        0.0000
     12 N          12.2456   16.4930    4.0564 N.4     1  UNL1        0.0000
     13 C          11.0431   16.7776    3.2734 C.3     1  UNL1        0.0000
     14 H          10.1677   16.6130    3.8957 H       1  UNL1        0.0000
     15 H          10.9703   16.1133    2.4177 H       1  UNL1        0.0000
     16 H          11.0512   17.8178    2.9231 H       1  UNL1        0.0000
     17 C          12.3131   17.4783    5.1340 C.3     1  UNL1        0.0000
     18 H          13.1833   17.2838    5.7530 H       1  UNL1        0.0000
     19 H          11.4236   17.3865    5.7510 H       1  UNL1        0.0000
     20 H          12.3713   18.4962    4.7286 H       1  UNL1        0.0000
     21 O          10.8998   13.9807    3.5610 O.3     1  UNL1        0.0000
     22 C          10.9321   12.9432    2.8344 C.2     1  UNL1        0.0000
     23 O          11.8983   12.1759    2.7425 O.2     1  UNL1        0.0000
     24 C           9.6679   12.6711    2.0310 C.3     1  UNL1        0.0000
     25 H           9.9311   12.2814    1.0514 H       1  UNL1        0.0000
     26 H           9.0733   13.5756    1.9436 H       1  UNL1        0.0000
     27 H           9.0908   11.9156    2.5599 H       1  UNL1        0.0000
     28 C          13.8078   12.7176    6.7908 C.ar    1  UNL1        0.0000
     29 C          14.1862   14.0660    6.8425 C.ar    1  UNL1        0.0000
     30 O          13.6908   14.9328    5.9932 O.3     1  UNL1        0.0000
     31 C          15.1483   14.4112    7.8307 C.ar    1  UNL1        0.0000
     32 C          15.5663   15.8665    8.0005 C.3     1  UNL1        0.0000
     33 C          16.1211   16.3957    6.6710 C.3     1  UNL1        0.0000
     34 H          17.0247   15.8518    6.4002 H       1  UNL1        0.0000
     35 H          16.3638   17.4538    6.7534 H       1  UNL1        0.0000
     36 H          15.3860   16.2618    5.8843 H       1  UNL1        0.0000
     37 C          14.3222   16.6629    8.4185 C.3     1  UNL1        0.0000
     38 H          13.5029   16.4691    7.7340 H       1  UNL1        0.0000
     39 H          14.5330   17.7308    8.4290 H       1  UNL1        0.0000
     40 H          14.0069   16.3611    9.4152 H       1  UNL1        0.0000
     41 C          16.6459   16.0711    9.0678 C.3     1  UNL1        0.0000
     42 H          16.2945   15.7659   10.0507 H       1  UNL1        0.0000
     43 H          16.8987   17.1290    9.1186 H       1  UNL1        0.0000
     44 H          17.5521   15.5204    8.8236 H       1  UNL1        0.0000
     45 C          15.6446   13.4095    8.6415 C.ar    1  UNL1        0.0000
     46 H          16.3730   13.6786    9.3875 H       1  UNL1        0.0000
     47 C          15.2642   12.0674    8.5683 C.ar    1  UNL1        0.0000
     48 C          14.3173   11.7342    7.6187 C.ar    1  UNL1        0.0000
     49 H          13.9486   10.7271    7.4947 H       1  UNL1        0.0000
     50 C          15.8797   11.0560    9.5232 C.3     1  UNL1        0.0000
     51 C          17.4019   11.0317    9.3256 C.3     1  UNL1        0.0000
     52 H          17.6425   10.7615    8.2994 H       1  UNL1        0.0000
     53 H          17.8565   10.3008    9.9914 H       1  UNL1        0.0000
     54 H          17.8433   12.0025    9.5342 H       1  UNL1        0.0000
     55 C          15.5500   11.4598   10.9671 C.3     1  UNL1        0.0000
     56 H          15.9574   10.7310   11.6651 H       1  UNL1        0.0000
     57 H          14.4718   11.5068   11.1047 H       1  UNL1        0.0000
     58 H          15.9663   12.4336   11.2101 H       1  UNL1        0.0000
     59 C          15.3455    9.6401    9.2907 C.3     1  UNL1        0.0000
     60 H          15.8191    8.9525    9.9887 H       1  UNL1        0.0000
     61 H          15.5661    9.3008    8.2812 H       1  UNL1        0.0000
     62 H          14.2711    9.5986    9.4540 H       1  UNL1        0.0000
     63 C          10.9333   12.5382    6.6940 C.ar    1  UNL1        0.0000
     64 C          10.4133   11.4779    7.4090 C.ar    1  UNL1        0.0000
     65 H          10.8246   10.4916    7.2407 H       1  UNL1        0.0000
     66 C          10.4881   13.8630    6.8125 C.ar    1  UNL1        0.0000
     67 O          11.0262   14.8169    6.1010 O.3     1  UNL1        0.0000
     68 C           9.4379   14.0902    7.7415 C.ar    1  UNL1        0.0000
     69 C           8.9104   15.5059    7.9357 C.3     1  UNL1        0.0000
     70 C           7.7728   15.5975    8.9570 C.3     1  UNL1        0.0000
     71 H           7.4464   16.6333    9.0326 H       1  UNL1        0.0000
     72 H           8.1000   15.2772    9.9435 H       1  UNL1        0.0000
     73 H           6.9180   14.9984    8.6512 H       1  UNL1        0.0000
     74 C           8.3826   16.0216    6.5902 C.3     1  UNL1        0.0000
     75 H           8.0796   17.0640    6.6731 H       1  UNL1        0.0000
     76 H           7.5230   15.4328    6.2756 H       1  UNL1        0.0000
     77 H           9.1546   15.9338    5.8325 H       1  UNL1        0.0000
     78 C          10.0651   16.3897    8.4268 C.3     1  UNL1        0.0000
     79 H          10.9054   16.3204    7.7438 H       1  UNL1        0.0000
     80 H          10.3952   16.0606    9.4102 H       1  UNL1        0.0000
     81 H           9.7484   17.4290    8.4961 H       1  UNL1        0.0000
     82 C           8.9377   13.0137    8.4522 C.ar    1  UNL1        0.0000
     83 H           8.1449   13.2043    9.1528 H       1  UNL1        0.0000
     84 C           9.3920   11.7023    8.3180 C.ar    1  UNL1        0.0000
     85 C           8.8311   10.5362    9.1194 C.3     1  UNL1        0.0000
     86 C           8.2392    9.5013    8.1523 C.3     1  UNL1        0.0000
     87 H           8.9955    9.1222    7.4706 H       1  UNL1        0.0000
     88 H           7.4445    9.9523    7.5616 H       1  UNL1        0.0000
     89 H           7.8248    8.6605    8.7055 H       1  UNL1        0.0000
     90 C           9.9673    9.8967    9.9306 C.3     1  UNL1        0.0000
     91 H           9.5860    9.0712   10.5290 H       1  UNL1        0.0000
     92 H          10.4115   10.6326   10.5980 H       1  UNL1        0.0000
     93 H          10.7484    9.5131    9.2802 H       1  UNL1        0.0000
     94 C           7.7314   10.9615   10.0960 C.3     1  UNL1        0.0000
     95 H           6.8851   11.3947    9.5681 H       1  UNL1        0.0000
     96 H           8.1084   11.6813   10.8188 H       1  UNL1        0.0000
     97 H           7.3754   10.0904   10.6430 H       1  UNL1        0.0000
@<TRIPOS>BOND
     1    25    24    1
     2     8     6    1
     3     7     6    1
     4    26    24    1
     5    24    27    1
     6    24    22    1
     7     6     9    1
     8     6     3    1
     9    15    13    1
    10    10     9    1
    11    23    22    2
    12    22    21    1
    13     5     3    1
    14    16    13    1
    15     9    11    1
    16     9    12    1
    17    13    14    1
    18    13    12    1
    19     3     4    1
    20     3     1    1
    21    21     1    1
    22    12     1    1
    23    12    17    1
    24    20    17    1
    25     1    30    1
    26     1    67    1
    27    17    19    1
    28    17    18    1
    29     2    63    1
    30     2    28    1
    31    77    74    1
    32    36    33    1
    33    30    29    1
    34    67    66    1
    35    76    74    1
    36    34    33    1
    37    74    75    1
    38    74    69    1
    39    33    35    1
    40    33    32    1
    41    63    66   ar
    42    63    64   ar
    43    28    29   ar
    44    28    48   ar
    45    66    68   ar
    46    29    31   ar
    47    65    64    1
    48    64    84   ar
    49    87    86    1
    50    49    48    1
    51    88    86    1
    52    48    47   ar
    53    38    37    1
    54    68    69    1
    55    68    82   ar
    56    79    78    1
    57    31    32    1
    58    31    45   ar
    59    69    78    1
    60    69    70    1
    61    32    37    1
    62    32    41    1
    63    86    89    1
    64    86    85    1
    65    61    59    1
    66    52    51    1
    67    84    82   ar
    68    84    85    1
    69    37    39    1
    70    37    40    1
    71    78    81    1
    72    78    80    1
    73    82    83    1
    74    47    45   ar
    75    47    50    1
    76    45    46    1
    77    73    70    1
    78    44    41    1
    79    70    71    1
    80    70    72    1
    81    41    43    1
    82    41    42    1
    83    85    90    1
    84    85    94    1
    85    93    90    1
    86    59    62    1
    87    59    50    1
    88    59    60    1
    89    51    50    1
    90    51    54    1
    91    51    53    1
    92    50    55    1
    93    95    94    1
    94    90    91    1
    95    90    92    1
    96    94    97    1
    97    94    96    1
    98    55    57    1
    99    55    58    1
   100    55    56    1
