@<TRIPOS>MOLECULE
CSD_code = YIXFOB | q = 0 | S = 0 | Stoichiometry = C22H44CoOP3 | MND = 6
 71 69 0 0 0
SMALL
GASTEIGER

@<TRIPOS>ATOM
      1 CO          6.8214    6.7274    8.4020 Co.oh   1  UNL1        0.0000
      2 P           8.0555    4.8671    8.9401 P.3     2  UNL2        0.0000
      3 P           8.2628    7.5695    6.9484 P.3     3  UNL3        0.0000
      4 P           5.2145    6.0653    6.8694 P.3     4  UNL4        0.0000
      5 O           5.6637    5.9943    9.7609 O.3     1  UNL1        0.0000
      6 C           7.2036    8.2732    9.6619 C.3     1  UNL1        0.0000
      7 H           7.1675    7.9379   10.6928 H       1  UNL1        0.0000
      8 H           8.0575    8.9041    9.4369 H       1  UNL1        0.0000
      9 C           5.9970    8.4942    8.9810 C.3     1  UNL1        0.0000
     10 H           5.9366    9.2991    8.2502 H       1  UNL1        0.0000
     11 C           4.7477    8.1283    9.6587 C.ar    1  UNL1        0.0000
     12 C           4.7430    6.8217   10.1957 C.ar    1  UNL1        0.0000
     13 C           3.7286    6.4768   11.1183 C.ar    1  UNL1        0.0000
     14 C           2.6969    7.3846   11.3053 C.ar    1  UNL1        0.0000
     15 H           1.8850    7.1336   11.9704 H       1  UNL1        0.0000
     16 C           2.6331    8.6177   10.6661 C.ar    1  UNL1        0.0000
     17 C           3.6939    8.9985    9.8592 C.ar    1  UNL1        0.0000
     18 H           3.7107    9.9792    9.4001 H       1  UNL1        0.0000
     19 C           3.7924    5.1544   11.8701 C.3     1  UNL1        0.0000
     20 C           5.1532    5.0718   12.5756 C.3     1  UNL1        0.0000
     21 H           5.9532    5.2151   11.8552 H       1  UNL1        0.0000
     22 H           5.2801    4.1036   13.0584 H       1  UNL1        0.0000
     23 H           5.2288    5.8505   13.3326 H       1  UNL1        0.0000
     24 C           3.6508    3.9984   10.8729 C.3     1  UNL1        0.0000
     25 H           4.4024    4.0968   10.0966 H       1  UNL1        0.0000
     26 H           2.6637    4.0197   10.4136 H       1  UNL1        0.0000
     27 H           3.7795    3.0394   11.3735 H       1  UNL1        0.0000
     28 C           2.7004    5.0082   12.9335 C.3     1  UNL1        0.0000
     29 H           2.8450    4.0711   13.4694 H       1  UNL1        0.0000
     30 H           1.7103    4.9869   12.4835 H       1  UNL1        0.0000
     31 H           2.7453    5.8213   13.6546 H       1  UNL1        0.0000
     32 C           1.4646    9.5325   10.9021 C.3     1  UNL1        0.0000
     33 H           1.5370   10.0019   11.8848 H       1  UNL1        0.0000
     34 H           0.5265    8.9798   10.8660 H       1  UNL1        0.0000
     35 H           1.4337   10.3205   10.1524 H       1  UNL1        0.0000
     36 C           9.1087    5.1401   10.4201 C.3     2  UNL2        0.0000
     37 H           9.6027    4.2176   10.7236 H       2  UNL2        0.0000
     38 H           8.4695    5.4962   11.2245 H       2  UNL2        0.0000
     39 H           9.8523    5.9050   10.2069 H       2  UNL2        0.0000
     40 C           7.1513    3.3739    9.5015 C.3     2  UNL2        0.0000
     41 H           6.5040    3.0191    8.7023 H       2  UNL2        0.0000
     42 H           6.5364    3.6393   10.3544 H       2  UNL2        0.0000
     43 H           7.8547    2.5891    9.7792 H       2  UNL2        0.0000
     44 C           9.2753    3.9972    7.8519 C.3     2  UNL2        0.0000
     45 H           9.7700    3.1982    8.4018 H       2  UNL2        0.0000
     46 H          10.0280    4.6862    7.4784 H       2  UNL2        0.0000
     47 H           8.7449    3.5681    7.0034 H       2  UNL2        0.0000
     48 C           7.9952    9.2733    6.3063 C.3     3  UNL3        0.0000
     49 H           8.0242    9.9765    7.1360 H       3  UNL3        0.0000
     50 H           7.0202    9.3393    5.8286 H       3  UNL3        0.0000
     51 H           8.7712    9.5326    5.5862 H       3  UNL3        0.0000
     52 C          10.0015    7.7807    7.5198 C.3     3  UNL3        0.0000
     53 H          10.6098    8.2233    6.7312 H       3  UNL3        0.0000
     54 H          10.4159    6.8156    7.8004 H       3  UNL3        0.0000
     55 H          10.0195    8.4271    8.3941 H       3  UNL3        0.0000
     56 C           8.5988    6.7204    5.3469 C.3     3  UNL3        0.0000
     57 H           9.4159    7.2096    4.8174 H       3  UNL3        0.0000
     58 H           7.7030    6.7496    4.7304 H       3  UNL3        0.0000
     59 H           8.8578    5.6812    5.5335 H       3  UNL3        0.0000
     60 C           4.6916    7.3074    5.6112 C.3     4  UNL4        0.0000
     61 H           5.5345    7.5970    4.9880 H       4  UNL4        0.0000
     62 H           4.3246    8.1875    6.1360 H       4  UNL4        0.0000
     63 H           3.8988    6.9070    4.9808 H       4  UNL4        0.0000
     64 C           3.5497    5.6252    7.4942 C.3     4  UNL4        0.0000
     65 H           3.1619    6.4457    8.0940 H       4  UNL4        0.0000
     66 H           3.6280    4.7466    8.1283 H       4  UNL4        0.0000
     67 H           2.8768    5.4217    6.6611 H       4  UNL4        0.0000
     68 C           5.4774    4.6065    5.7673 C.3     4  UNL4        0.0000
     69 H           4.6203    4.4575    5.1121 H       4  UNL4        0.0000
     70 H           5.6126    3.7245    6.3904 H       4  UNL4        0.0000
     71 H           6.3736    4.7446    5.1676 H       4  UNL4        0.0000
@<TRIPOS>BOND
     1    58    56    1
     2    57    56    1
     3    63    60    1
     4    61    60    1
     5    69    68    1
     6    71    68    1
     7    56    59    1
     8    56     3    1
     9    51    48    1
    10    60    62    1
    11    60     4    1
    12    68    70    1
    13    68     4    1
    14    50    48    1
    15    48     3    1
    16    48    49    1
    17    67    64    1
    18    53    52    1
    19     4    64    1
    20     3    52    1
    21    47    44    1
    22    46    44    1
    23    64    65    1
    24    64    66    1
    25    52    54    1
    26    52    55    1
    27    44    45    1
    28    44     2    1
    29    10     9    1
    30     1     6    1
    31     1     5    1
    32    41    40    1
    33     2    40    1
    34     2    36    1
    35     9    11    1
    36     9     6    1
    37    18    17    1
    38     8     6    1
    39    40    43    1
    40    40    42    1
    41    11    17   ar
    42    11    12   ar
    43     6     7    1
    44     5    12    1
    45    17    16   ar
    46    25    24    1
    47    35    32    1
    48    12    13   ar
    49    39    36    1
    50    26    24    1
    51    36    37    1
    52    36    38    1
    53    16    32    1
    54    16    14   ar
    55    34    32    1
    56    24    27    1
    57    24    19    1
    58    32    33    1
    59    13    14   ar
    60    13    19    1
    61    14    15    1
    62    21    20    1
    63    19    20    1
    64    19    28    1
    65    30    28    1
    66    20    22    1
    67    20    23    1
    68    28    29    1
    69    28    31    1
