@<TRIPOS>MOLECULE
CSD_code = AGOVOK | q = 0 | S = 0 | Stoichiometry = C26H34CoP | MND = 8
 62 63 0 0 0
SMALL
GASTEIGER

@<TRIPOS>ATOM
      1 CO          1.2780    7.0264    7.7287 Co.oh   1  UNL1        0.0000
      2 P           3.5315    6.9485    7.9706 P.3     2  UNL2        0.0000
      3 C           1.0215    9.0429    7.7656 C.3     1  UNL1        0.0000
      4 H           0.5258    9.5832    6.9666 H       1  UNL1        0.0000
      5 H           1.9376    9.5232    8.0957 H       1  UNL1        0.0000
      6 C           0.2144    8.4332    8.7530 C.3     1  UNL1        0.0000
      7 H          -0.8639    8.3825    8.6339 H       1  UNL1        0.0000
      8 C           0.8451    7.7023    9.7531 C.3     1  UNL1        0.0000
      9 H           1.8176    8.0493   10.0928 H       1  UNL1        0.0000
     10 C           0.0868    6.9446   10.8033 C.3     1  UNL1        0.0000
     11 H           0.6248    6.0423   11.0905 H       1  UNL1        0.0000
     12 H          -0.0217    7.5592   11.7005 H       1  UNL1        0.0000
     13 H          -0.9061    6.6665   10.4566 H       1  UNL1        0.0000
     14 C           0.9441    6.6871    5.6743 C.3     1  UNL1        0.0000
     15 H           1.5774    5.8518    5.4074 H       1  UNL1        0.0000
     16 H           0.8799    7.4413    4.8994 H       1  UNL1        0.0000
     17 C          -0.1962    6.4439    6.4470 C.3     1  UNL1        0.0000
     18 H          -1.1093    7.0081    6.2862 H       1  UNL1        0.0000
     19 C          -0.1206    5.5441    7.5415 C.3     1  UNL1        0.0000
     20 H          -0.9805    5.4446    8.1965 H       1  UNL1        0.0000
     21 C           1.0825    4.9195    7.8705 C.3     1  UNL1        0.0000
     22 H           1.0980    4.3205    8.7730 H       1  UNL1        0.0000
     23 H           1.7445    4.5452    7.0985 H       1  UNL1        0.0000
     24 C           3.9653    6.7618    9.7371 C.ar    2  UNL2        0.0000
     25 C           3.7032    5.5239   10.3231 C.ar    2  UNL2        0.0000
     26 H           3.3467    4.7169    9.6984 H       2  UNL2        0.0000
     27 C           3.8930    5.3249   11.6762 C.ar    2  UNL2        0.0000
     28 H           3.6916    4.3573   12.1134 H       2  UNL2        0.0000
     29 C           4.3336    6.3684   12.4753 C.ar    2  UNL2        0.0000
     30 H           4.4804    6.2176   13.5347 H       2  UNL2        0.0000
     31 C           4.5724    7.6084   11.9100 C.ar    2  UNL2        0.0000
     32 H           4.9028    8.4300   12.5295 H       2  UNL2        0.0000
     33 C           4.3832    7.8080   10.5526 C.ar    2  UNL2        0.0000
     34 H           4.5568    8.7908   10.1398 H       2  UNL2        0.0000
     35 C           4.5666    5.6257    7.2297 C.ar    2  UNL2        0.0000
     36 C           5.5788    4.9624    7.9174 C.ar    2  UNL2        0.0000
     37 H           5.7739    5.1928    8.9541 H       2  UNL2        0.0000
     38 C           6.3505    4.0065    7.2811 C.ar    2  UNL2        0.0000
     39 H           7.1310    3.4995    7.8302 H       2  UNL2        0.0000
     40 C           6.1332    3.7021    5.9479 C.ar    2  UNL2        0.0000
     41 H           6.7371    2.9540    5.4557 H       2  UNL2        0.0000
     42 C           5.1405    4.3677    5.2492 C.ar    2  UNL2        0.0000
     43 H           4.9689    4.1440    4.2059 H       2  UNL2        0.0000
     44 C           4.3665    5.3202    5.8867 C.ar    2  UNL2        0.0000
     45 H           3.5980    5.8425    5.3380 H       2  UNL2        0.0000
     46 C           4.5651    8.4175    7.4505 C.3     2  UNL2        0.0000
     47 H           4.2109    9.2531    8.0679 H       2  UNL2        0.0000
     48 C           6.0690    8.2501    7.6516 C.3     2  UNL2        0.0000
     49 H           6.2969    7.9740    8.6833 H       2  UNL2        0.0000
     50 H           6.4370    7.4509    7.0047 H       2  UNL2        0.0000
     51 C           6.7811    9.5526    7.2899 C.3     2  UNL2        0.0000
     52 H           6.4423   10.3514    7.9546 H       2  UNL2        0.0000
     53 H           7.8578    9.4355    7.4319 H       2  UNL2        0.0000
     54 C           6.4868    9.9386    5.8431 C.3     2  UNL2        0.0000
     55 H           6.8870    9.1694    5.1783 H       2  UNL2        0.0000
     56 H           6.9827   10.8811    5.6011 H       2  UNL2        0.0000
     57 C           4.9827   10.0662    5.6165 C.3     2  UNL2        0.0000
     58 H           4.5906   10.8830    6.2274 H       2  UNL2        0.0000
     59 H           4.7842   10.3079    4.5702 H       2  UNL2        0.0000
     60 C           4.2779    8.7657    5.9921 C.3     2  UNL2        0.0000
     61 H           4.6451    7.9633    5.3489 H       2  UNL2        0.0000
     62 H           3.1997    8.8574    5.8430 H       2  UNL2        0.0000
@<TRIPOS>BOND
     1    43    42    1
     2    59    57    1
     3    16    14    1
     4    55    54    1
     5    42    44   ar
     6    42    40   ar
     7    45    44    1
     8    61    60    1
     9    15    14    1
    10    41    40    1
    11    56    54    1
    12    57    54    1
    13    57    60    1
    14    57    58    1
    15    14    17    1
    16    62    60    1
    17    54    51    1
    18    44    35   ar
    19    40    38   ar
    20    60    46    1
    21    18    17    1
    22    17    19    1
    23    17     1    1
    24     4     3    1
    25    50    48    1
    26    23    21    1
    27    35    36   ar
    28    35     2    1
    29    38    39    1
    30    38    36   ar
    31    51    53    1
    32    51    48    1
    33    51    52    1
    34    46    48    1
    35    46     2    1
    36    46    47    1
    37    19    21    1
    38    19    20    1
    39    48    49    1
    40     1     3    1
    41     3     5    1
    42     3     6    1
    43    21    22    1
    44    36    37    1
    45     2    24    1
    46     7     6    1
    47     6     8    1
    48    26    25    1
    49    24    25   ar
    50    24    33   ar
    51     8     9    1
    52     8    10    1
    53    34    33    1
    54    25    27   ar
    55    13    10    1
    56    33    31   ar
    57    10    11    1
    58    10    12    1
    59    27    28    1
    60    27    29   ar
    61    31    29   ar
    62    31    32    1
    63    29    30    1
