@<TRIPOS>MOLECULE
CSD_code = GAHJAD | q = 0 | S = 0 | Stoichiometry = C22H32Cl2CoN5 | MND = 6
 62 66 0 0 0
SMALL
GASTEIGER

@<TRIPOS>ATOM
      1 CO          2.9452    5.0119    9.0685 Co.oh   1  UNL1        0.0000
      2 CL          1.2148    4.9367   10.3997 Cl      1  UNL1        0.0000
      3 CL          1.9104    4.0441    7.2627 Cl      1  UNL1        0.0000
      4 N           3.0542    7.7460    9.6141 N.pl3   1  UNL1        0.0000
      5 N           1.5384    7.6105    8.0957 N.pl3   1  UNL1        0.0000
      6 N           4.3656    3.6580   11.0549 N.pl3   1  UNL1        0.0000
      7 N           3.3273    2.0782   10.0325 N.pl3   1  UNL1        0.0000
      8 N           4.5925    5.0694    7.7613 N.4     1  UNL1        0.0000
      9 H           4.0723    4.5932    7.0126 H       1  UNL1        0.0000
     10 C           3.9301    5.8029   10.4205 C.ar    1  UNL1        0.0000
     11 C           4.6211    5.0081   11.3163 C.ar    1  UNL1        0.0000
     12 C           5.3767    5.5894   12.3235 C.ar    1  UNL1        0.0000
     13 H           5.9242    4.9908   13.0362 H       1  UNL1        0.0000
     14 C           5.4008    6.9762   12.4105 C.ar    1  UNL1        0.0000
     15 H           5.9861    7.4391   13.1910 H       1  UNL1        0.0000
     16 C           4.6734    7.7870   11.5475 C.ar    1  UNL1        0.0000
     17 H           4.6862    8.8598   11.6702 H       1  UNL1        0.0000
     18 C           3.9261    7.1794   10.5496 C.ar    1  UNL1        0.0000
     19 C           2.4400    6.8768    8.7618 C.3     1  UNL1        0.0000
     20 C           2.5450    9.0034    9.4692 C.2     1  UNL1        0.0000
     21 H           2.8765    9.8397   10.0493 H       1  UNL1        0.0000
     22 C           1.5925    8.9160    8.5092 C.2     1  UNL1        0.0000
     23 H           0.9485    9.6686    8.1023 H       1  UNL1        0.0000
     24 C           3.5569    3.3966    9.9887 C.3     1  UNL1        0.0000
     25 C           4.6423    2.5118   11.7413 C.2     1  UNL1        0.0000
     26 H           5.2525    2.4885   12.6205 H       1  UNL1        0.0000
     27 C           3.9906    1.5164   11.0920 C.2     1  UNL1        0.0000
     28 H           3.9365    0.4684   11.3056 H       1  UNL1        0.0000
     29 C           2.5175    1.3320    9.1039 C.3     1  UNL1        0.0000
     30 H           1.8064    2.0220    8.6460 H       1  UNL1        0.0000
     31 H           1.9683    0.5655    9.6572 H       1  UNL1        0.0000
     32 C           3.3689    0.6899    8.0081 C.3     1  UNL1        0.0000
     33 H           4.1146    0.0255    8.4556 H       1  UNL1        0.0000
     34 H           3.8925    1.4806    7.4670 H       1  UNL1        0.0000
     35 C           2.4988   -0.0871    7.0254 C.3     1  UNL1        0.0000
     36 H           1.7825    0.6025    6.5770 H       1  UNL1        0.0000
     37 H           1.9375   -0.8548    7.5634 H       1  UNL1        0.0000
     38 C           3.3333   -0.7403    5.9310 C.3     1  UNL1        0.0000
     39 H           2.6957   -1.2902    5.2434 H       1  UNL1        0.0000
     40 H           4.0553   -1.4340    6.3585 H       1  UNL1        0.0000
     41 H           3.8750    0.0147    5.3659 H       1  UNL1        0.0000
     42 C           0.6276    7.1206    7.0915 C.3     1  UNL1        0.0000
     43 H          -0.2502    7.7715    7.0835 H       1  UNL1        0.0000
     44 H           0.3245    6.1104    7.3748 H       1  UNL1        0.0000
     45 C           1.2672    7.0675    5.7026 C.3     1  UNL1        0.0000
     46 H           0.5164    6.6910    5.0068 H       1  UNL1        0.0000
     47 H           2.0794    6.3396    5.7246 H       1  UNL1        0.0000
     48 C           1.7793    8.4212    5.2181 C.3     1  UNL1        0.0000
     49 H           0.9526    9.1360    5.1940 H       1  UNL1        0.0000
     50 H           2.5309    8.8073    5.9126 H       1  UNL1        0.0000
     51 C           2.3941    8.3170    3.8278 C.3     1  UNL1        0.0000
     52 H           1.6553    7.9653    3.1117 H       1  UNL1        0.0000
     53 H           3.2251    7.6150    3.8308 H       1  UNL1        0.0000
     54 H           2.7619    9.2853    3.4957 H       1  UNL1        0.0000
     55 C           5.7682    4.2616    8.0758 C.3     1  UNL1        0.0000
     56 H           6.2934    4.6924    8.9292 H       1  UNL1        0.0000
     57 H           6.4593    4.2271    7.2249 H       1  UNL1        0.0000
     58 H           5.4720    3.2449    8.3220 H       1  UNL1        0.0000
     59 C           5.0244    6.3675    7.2480 C.3     1  UNL1        0.0000
     60 H           4.1700    6.9267    6.8759 H       1  UNL1        0.0000
     61 H           5.7450    6.2455    6.4301 H       1  UNL1        0.0000
     62 H           5.5018    6.9382    8.0455 H       1  UNL1        0.0000
@<TRIPOS>BOND
     1    52    51    1
     2    54    51    1
     3    51    53    1
     4    51    48    1
     5    46    45    1
     6    49    48    1
     7    48    45    1
     8    48    50    1
     9    39    38    1
    10    41    38    1
    11    45    47    1
    12    45    42    1
    13    38    40    1
    14    38    35    1
    15    61    59    1
    16    36    35    1
    17    60    59    1
    18     9     8    1
    19    35    37    1
    20    35    32    1
    21    43    42    1
    22    42    44    1
    23    42     5    1
    24    57    55    1
    25    59     8    1
    26    59    62    1
    27     3     1    1
    28    34    32    1
    29     8    55    1
    30     8     1    1
    31    32    33    1
    32    32    29    1
    33    55    58    1
    34    55    56    1
    35     5    22    1
    36     5    19    1
    37    23    22    1
    38    22    20    2
    39    30    29    1
    40    19     1    1
    41    19     4    1
    42     1    24    1
    43     1     2    1
    44     1    10    1
    45    29    31    1
    46    29     7    1
    47    20     4    1
    48    20    21    1
    49     4    18    1
    50    24     7    1
    51    24     6    1
    52     7    27    1
    53    10    18   ar
    54    10    11   ar
    55    18    16   ar
    56     6    11    1
    57     6    25    1
    58    27    28    1
    59    27    25    2
    60    11    12   ar
    61    16    17    1
    62    16    14   ar
    63    25    26    1
    64    12    14   ar
    65    12    13    1
    66    14    15    1
