@<TRIPOS>MOLECULE
CSD_code = HEPSAW | q = 0 | S = 0 | Stoichiometry = C25H20CoO3P | MND = 6
 50 52 0 0 0
SMALL
GASTEIGER

@<TRIPOS>ATOM
      1 CO          1.5556    5.9921    5.5823 Co.oh   1  UNL1        0.0000
      2 P           1.0131    5.7660    3.3396 P.3     2  UNL2        0.0000
      3 O           1.3935    8.8918    5.4272 O.3     1  UNL1        0.0000
      4 O           4.4264    5.4487    5.9406 O.3     1  UNL1        0.0000
      5 O           0.6772    6.6524    8.3185 O.2     1  UNL1        0.0000
      6 C           1.4498    7.7502    5.5089 C.3     1  UNL1        0.0000
      7 C           3.3086    5.6486    5.7879 C.3     1  UNL1        0.0000
      8 C           0.6252    6.0523    7.3023 C.2     1  UNL1        0.0000
      9 C           0.0149    5.0534    6.5387 C.3     1  UNL1        0.0000
     10 C           0.9819    4.1180    6.0243 C.3     1  UNL1        0.0000
     11 C          -1.4037    5.0426    6.2175 C.2     1  UNL1        0.0000
     12 C          -2.2924    5.9292    6.6542 C.2     1  UNL1        0.0000
     13 C           2.6796    7.7478    2.4531 C.ar    2  UNL2        0.0000
     14 C           3.0944    8.8097    1.6731 C.ar    2  UNL2        0.0000
     15 C           2.2462    9.3298    0.7083 C.ar    2  UNL2        0.0000
     16 C           0.9886    8.7806    0.5249 C.ar    2  UNL2        0.0000
     17 C           0.5707    7.7132    1.3008 C.ar    2  UNL2        0.0000
     18 C           1.4149    7.1935    2.2746 C.ar    2  UNL2        0.0000
     19 C          -1.6217    6.5662    3.3403 C.ar    2  UNL2        0.0000
     20 C          -2.9874    6.4056    3.2160 C.ar    2  UNL2        0.0000
     21 C          -3.5071    5.1839    2.8160 C.ar    2  UNL2        0.0000
     22 C          -2.6569    4.1254    2.5431 C.ar    2  UNL2        0.0000
     23 C          -1.2865    4.2838    2.6567 C.ar    2  UNL2        0.0000
     24 C          -0.7608    5.5122    3.0399 C.ar    2  UNL2        0.0000
     25 C           1.4818    4.3699    0.9590 C.ar    2  UNL2        0.0000
     26 C           2.0792    3.3946    0.1844 C.ar    2  UNL2        0.0000
     27 C           2.9781    2.5052    0.7540 C.ar    2  UNL2        0.0000
     28 C           3.2801    2.5948    2.1017 C.ar    2  UNL2        0.0000
     29 C           2.6829    3.5702    2.8820 C.ar    2  UNL2        0.0000
     30 C           1.7774    4.4579    2.3174 C.ar    2  UNL2        0.0000
     31 H           0.5965    3.3987    5.3025 H       1  UNL1        0.0000
     32 H           1.6394    3.6442    6.7500 H       1  UNL1        0.0000
     33 H          -1.7230    4.2015    5.6135 H       1  UNL1        0.0000
     34 H          -2.0047    6.7754    7.2559 H       1  UNL1        0.0000
     35 H          -3.3379    5.8365    6.4188 H       1  UNL1        0.0000
     36 H           3.3292    7.3381    3.2179 H       2  UNL2        0.0000
     37 H           4.0754    9.2366    1.8200 H       2  UNL2        0.0000
     38 H           2.5645   10.1646    0.1019 H       2  UNL2        0.0000
     39 H           0.3265    9.1852   -0.2269 H       2  UNL2        0.0000
     40 H          -0.4154    7.2954    1.1525 H       2  UNL2        0.0000
     41 H          -1.2076    7.5091    3.6745 H       2  UNL2        0.0000
     42 H          -3.6497    7.2289    3.4395 H       2  UNL2        0.0000
     43 H          -4.5755    5.0551    2.7251 H       2  UNL2        0.0000
     44 H          -3.0624    3.1698    2.2435 H       2  UNL2        0.0000
     45 H          -0.6254    3.4535    2.4493 H       2  UNL2        0.0000
     46 H           0.7840    5.0660    0.5147 H       2  UNL2        0.0000
     47 H           1.8464    3.3275   -0.8684 H       2  UNL2        0.0000
     48 H           3.4440    1.7453    0.1443 H       2  UNL2        0.0000
     49 H           3.9830    1.9059    2.5466 H       2  UNL2        0.0000
     50 H           2.9165    3.6485    3.9348 H       2  UNL2        0.0000
@<TRIPOS>BOND
     1    47    26    1
     2    39    16    1
     3    38    15    1
     4    48    27    1
     5    26    27   ar
     6    26    25   ar
     7    46    25    1
     8    16    15   ar
     9    16    17   ar
    10    15    14   ar
    11    27    28   ar
    12    25    30   ar
    13    40    17    1
    14    17    18   ar
    15    14    37    1
    16    14    13   ar
    17    28    49    1
    18    28    29   ar
    19    44    22    1
    20    18    13   ar
    21    18     2    1
    22    30    29   ar
    23    30     2    1
    24    45    23    1
    25    13    36    1
    26    22    23   ar
    27    22    21   ar
    28    23    24   ar
    29    43    21    1
    30    21    20   ar
    31    29    50    1
    32    24     2    1
    33    24    19   ar
    34    20    19   ar
    35    20    42    1
    36    19    41    1
    37    31    10    1
    38     3     6    1
    39     6     1    1
    40     1     7    1
    41     1    10    1
    42     1     8    1
    43    33    11    1
    44     7     4    1
    45    10     9    1
    46    10    32    1
    47    11     9    1
    48    11    12    2
    49    35    12    1
    50     9     8    1
    51    12    34    1
    52     8     5    2
