@<TRIPOS>MOLECULE
CSD_code = MAMPEW | q = 0 | S = 0 | Stoichiometry = C23H38CoO2P | MND = 6
 65 66 0 0 0
SMALL
GASTEIGER

@<TRIPOS>ATOM
      1 CO          9.5088    2.0978   11.6652 Co.oh   1  UNL1        0.0000
      2 P           8.5150    3.0222    9.6031 P.3     2  UNL2        0.0000
      3 C           8.3187    0.9546   12.2487 C.3     1  UNL1        0.0000
      4 O           7.6141    0.1332   12.6370 O.3     1  UNL1        0.0000
      5 C           9.3217    4.5225    8.8176 C.3     2  UNL2        0.0000
      6 H           8.6465    4.8979    8.0403 H       2  UNL2        0.0000
      7 C           9.1795    3.4887   12.6747 C.3     1  UNL1        0.0000
      8 C           9.5172    5.6036    9.8817 C.3     2  UNL2        0.0000
      9 H          10.1959    5.2270   10.6499 H       2  UNL2        0.0000
     10 H           8.5704    5.8406   10.3693 H       2  UNL2        0.0000
     11 C           8.3371    1.8928    8.1177 C.3     2  UNL2        0.0000
     12 H           9.3808    1.7722    7.7918 H       2  UNL2        0.0000
     13 C           6.8235    3.7319   10.0243 C.3     2  UNL2        0.0000
     14 H           7.0310    4.2447   10.9755 H       2  UNL2        0.0000
     15 C          10.5933    0.4133   11.2591 C.3     1  UNL1        0.0000
     16 H          10.8958    0.0433   12.2364 H       1  UNL1        0.0000
     17 H          10.3592   -0.3830   10.5614 H       1  UNL1        0.0000
     18 O           8.9783    4.4257   13.3091 O.3     1  UNL1        0.0000
     19 C          11.2507    5.4828    7.5353 C.3     2  UNL2        0.0000
     20 H          12.2098    5.2514    7.0663 H       2  UNL2        0.0000
     21 H          10.5761    5.8427    6.7541 H       2  UNL2        0.0000
     22 C           5.8279    2.6152   10.3354 C.3     2  UNL2        0.0000
     23 H           5.5148    2.1314    9.4087 H       2  UNL2        0.0000
     24 H           6.3017    1.8669   10.9741 H       2  UNL2        0.0000
     25 C          10.6693    4.2178    8.1644 C.3     2  UNL2        0.0000
     26 H          11.3662    3.8462    8.9168 H       2  UNL2        0.0000
     27 H          10.5616    3.4570    7.3889 H       2  UNL2        0.0000
     28 C           6.1631    4.7463    9.0891 C.3     2  UNL2        0.0000
     29 H           5.8683    4.2704    8.1540 H       2  UNL2        0.0000
     30 H           6.8374    5.5693    8.8536 H       2  UNL2        0.0000
     31 C           4.9199    5.3245    9.7682 C.3     2  UNL2        0.0000
     32 H           5.2195    5.8526   10.6766 H       2  UNL2        0.0000
     33 H           4.4455    6.0491    9.1022 H       2  UNL2        0.0000
     34 C           7.5273    2.3885    6.9227 C.3     2  UNL2        0.0000
     35 H           7.8411    3.3901    6.6240 H       2  UNL2        0.0000
     36 H           6.4687    2.4226    7.1832 H       2  UNL2        0.0000
     37 C          11.2109    1.5707   10.7625 C.3     1  UNL1        0.0000
     38 H          11.3089    1.7113    9.6886 H       1  UNL1        0.0000
     39 C          10.1025    6.8721    9.2666 C.3     2  UNL2        0.0000
     40 H           9.4028    7.2763    8.5300 H       2  UNL2        0.0000
     41 H          10.2412    7.6268   10.0433 H       2  UNL2        0.0000
     42 C           4.5928    3.1856   11.0265 C.3     2  UNL2        0.0000
     43 H           3.8901    2.3812   11.2532 H       2  UNL2        0.0000
     44 H           4.8871    3.6487   11.9708 H       2  UNL2        0.0000
     45 C          11.4336    6.5716    8.5867 C.3     2  UNL2        0.0000
     46 H          12.1549    6.2356    9.3353 H       2  UNL2        0.0000
     47 H          11.8311    7.4766    8.1227 H       2  UNL2        0.0000
     48 C           3.9271    4.2252   10.1306 C.3     2  UNL2        0.0000
     49 H           3.0621    4.6583   10.6368 H       2  UNL2        0.0000
     50 H           3.5713    3.7421    9.2171 H       2  UNL2        0.0000
     51 C           7.7118    1.4265    5.7487 C.3     2  UNL2        0.0000
     52 H           7.1306    1.7758    4.8922 H       2  UNL2        0.0000
     53 H           8.7638    1.4117    5.4527 H       2  UNL2        0.0000
     54 C           8.0416   -0.4706    7.3583 C.3     2  UNL2        0.0000
     55 H           9.1043   -0.5470    7.1142 H       2  UNL2        0.0000
     56 H           7.6930   -1.4651    7.6445 H       2  UNL2        0.0000
     57 C           7.2733    0.0161    6.1325 C.3     2  UNL2        0.0000
     58 H           6.2037    0.0187    6.3558 H       2  UNL2        0.0000
     59 H           7.4368   -0.6644    5.2943 H       2  UNL2        0.0000
     60 C           7.8511    0.5001    8.5211 C.3     2  UNL2        0.0000
     61 H           8.4024    0.1542    9.3972 H       2  UNL2        0.0000
     62 H           6.7949    0.5276    8.7878 H       2  UNL2        0.0000
     63 C          11.4841    2.6206   11.6512 C.3     1  UNL1        0.0000
     64 H          11.8341    2.3752   12.6516 H       1  UNL1        0.0000
     65 H          11.9336    3.5263   11.2596 H       1  UNL1        0.0000
@<TRIPOS>BOND
     1    52    51    1
     2    59    57    1
     3    53    51    1
     4    51    57    1
     5    51    34    1
     6    57    58    1
     7    57    54    1
     8    35    34    1
     9    21    19    1
    10    34    36    1
    11    34    11    1
    12    20    19    1
    13    55    54    1
    14    54    56    1
    15    54    60    1
    16    27    25    1
    17    19    25    1
    18    19    45    1
    19    12    11    1
    20     6     5    1
    21    11    60    1
    22    11     2    1
    23    47    45    1
    24    29    28    1
    25    25     5    1
    26    25    26    1
    27    60    62    1
    28    60    61    1
    29    40    39    1
    30    45    39    1
    31    45    46    1
    32     5     2    1
    33     5     8    1
    34    30    28    1
    35    28    31    1
    36    28    13    1
    37    33    31    1
    38    50    48    1
    39    39     8    1
    40    39    41    1
    41    23    22    1
    42     2    13    1
    43    38    37    1
    44    31    48    1
    45    31    32    1
    46     8    10    1
    47     8     9    1
    48    13    22    1
    49    13    14    1
    50    48    49    1
    51    48    42    1
    52    22    24    1
    53    22    42    1
    54    17    15    1
    55    37    15    1
    56    37    63    1
    57    37     1    1
    58    42    43    1
    59    42    44    1
    60    15    16    1
    61    65    63    1
    62    63    64    1
    63     1     3    1
    64     1     7    1
    65     3     4    1
    66     7    18    1
