@<TRIPOS>MOLECULE
CSD_code = OVOTOK | q = 0 | S = 0 | Stoichiometry = C41H42CoN6P | MND = 5
 91 99 0 0 0
SMALL
GASTEIGER

@<TRIPOS>ATOM
      1 CO          7.0273    3.6867    3.5425 Co.oh   1  UNL1        0.0000
      2 P           5.1354    4.9251    4.0446 P.3     1  UNL1        0.0000
      3 N           7.1442    1.9106    6.0568 N.pl3   1  UNL1        0.0000
      4 N           7.8793    3.9581    6.2171 N.pl3   1  UNL1        0.0000
      5 N           8.0615    5.8962    2.1256 N.pl3   1  UNL1        0.0000
      6 N           7.3754    4.5051    0.5919 N.pl3   1  UNL1        0.0000
      7 N           6.3810    2.3181    2.8666 N.3     1  UNL1        0.0000
      8 N           5.9095    1.4045    2.4146 N.3     1  UNL1        0.0000
      9 C           7.3996    3.0247    5.3297 C.3     1  UNL1        0.0000
     10 C           7.4437    2.1203    7.3817 C.ar    1  UNL1        0.0000
     11 C           7.3594    1.2817    8.4806 C.ar    1  UNL1        0.0000
     12 H           7.0138    0.2642    8.3761 H       1  UNL1        0.0000
     13 C           7.7384    1.8024    9.7045 C.ar    1  UNL1        0.0000
     14 H           7.6850    1.1811   10.5858 H       1  UNL1        0.0000
     15 C           8.1871    3.1148    9.8223 C.ar    1  UNL1        0.0000
     16 H           8.4698    3.4879   10.7953 H       1  UNL1        0.0000
     17 C           8.2851    3.9536    8.7260 C.ar    1  UNL1        0.0000
     18 H           8.6375    4.9652    8.8424 H       1  UNL1        0.0000
     19 C           7.9145    3.4453    7.4898 C.ar    1  UNL1        0.0000
     20 C           8.2567    5.1727    5.6322 C.ar    1  UNL1        0.0000
     21 C           8.8675    6.2793    6.1986 C.ar    1  UNL1        0.0000
     22 H           9.0985    6.3327    7.2514 H       1  UNL1        0.0000
     23 C           9.1999    7.3447    5.3713 C.ar    1  UNL1        0.0000
     24 H           9.6730    8.2143    5.8042 H       1  UNL1        0.0000
     25 C           8.9672    7.3186    4.0020 C.ar    1  UNL1        0.0000
     26 H           9.2734    8.1572    3.3956 H       1  UNL1        0.0000
     27 C           8.3547    6.2007    3.4602 C.ar    1  UNL1        0.0000
     28 C           7.9728    5.1308    4.2681 C.ar    1  UNL1        0.0000
     29 C           8.2039    6.5549    0.9298 C.ar    1  UNL1        0.0000
     30 C           8.6508    7.8177    0.5697 C.ar    1  UNL1        0.0000
     31 H           8.9834    8.5337    1.3030 H       1  UNL1        0.0000
     32 C           8.6573    8.1385   -0.7763 C.ar    1  UNL1        0.0000
     33 H           9.0009    9.1157   -1.0811 H       1  UNL1        0.0000
     34 C           8.2378    7.2347   -1.7483 C.ar    1  UNL1        0.0000
     35 H           8.2669    7.5252   -2.7877 H       1  UNL1        0.0000
     36 C           7.7848    5.9736   -1.4063 C.ar    1  UNL1        0.0000
     37 H           7.4620    5.2622   -2.1516 H       1  UNL1        0.0000
     38 C           7.7641    5.6512   -0.0596 C.ar    1  UNL1        0.0000
     39 C           7.5461    4.6376    1.9293 C.3     1  UNL1        0.0000
     40 C           6.6821    0.6785    5.5289 C.ar    1  UNL1        0.0000
     41 C           7.5726   -0.1435    4.8395 C.ar    1  UNL1        0.0000
     42 C           7.1024   -1.3440    4.3322 C.ar    1  UNL1        0.0000
     43 H           7.7808   -1.9862    3.7892 H       1  UNL1        0.0000
     44 C           5.7819   -1.7346    4.4995 C.ar    1  UNL1        0.0000
     45 C           4.9192   -0.8978    5.1926 C.ar    1  UNL1        0.0000
     46 H           3.8864   -1.1890    5.3226 H       1  UNL1        0.0000
     47 C           5.3501    0.3127    5.7108 C.ar    1  UNL1        0.0000
     48 C           8.9959    0.2799    4.6503 C.3     1  UNL1        0.0000
     49 H           9.0316    1.2026    4.0686 H       1  UNL1        0.0000
     50 H           9.5596   -0.4873    4.1270 H       1  UNL1        0.0000
     51 H           9.4722    0.4737    5.6117 H       1  UNL1        0.0000
     52 C           5.2855   -3.0212    3.9138 C.3     1  UNL1        0.0000
     53 H           6.0917   -3.7460    3.8258 H       1  UNL1        0.0000
     54 H           4.8848   -2.8373    2.9164 H       1  UNL1        0.0000
     55 H           4.4909   -3.4462    4.5234 H       1  UNL1        0.0000
     56 C           4.4100    1.2298    6.4328 C.3     1  UNL1        0.0000
     57 H           4.6753    1.3102    7.4876 H       1  UNL1        0.0000
     58 H           3.3874    0.8688    6.3590 H       1  UNL1        0.0000
     59 H           4.4636    2.2275    5.9974 H       1  UNL1        0.0000
     60 C           6.9055    3.3368   -0.0594 C.ar    1  UNL1        0.0000
     61 C           5.6052    3.3076   -0.5581 C.ar    1  UNL1        0.0000
     62 C           5.1658    2.1580   -1.1957 C.ar    1  UNL1        0.0000
     63 H           4.1563    2.1231   -1.5805 H       1  UNL1        0.0000
     64 C           5.9889    1.0509   -1.3353 C.ar    1  UNL1        0.0000
     65 C           7.2793    1.1079   -0.8276 C.ar    1  UNL1        0.0000
     66 H           7.9258    0.2479   -0.9274 H       1  UNL1        0.0000
     67 C           7.7572    2.2397   -0.1884 C.ar    1  UNL1        0.0000
     68 C           4.7041    4.4926   -0.3839 C.3     1  UNL1        0.0000
     69 H           4.7122    4.8129    0.6576 H       1  UNL1        0.0000
     70 H           3.6843    4.2453   -0.6675 H       1  UNL1        0.0000
     71 H           5.0402    5.3316   -0.9944 H       1  UNL1        0.0000
     72 C           5.4885   -0.1986   -1.9934 C.3     1  UNL1        0.0000
     73 H           5.1501   -0.9019   -1.2323 H       1  UNL1        0.0000
     74 H           6.2790   -0.6787   -2.5663 H       1  UNL1        0.0000
     75 H           4.6518    0.0155   -2.6543 H       1  UNL1        0.0000
     76 C           9.1467    2.2953    0.3653 C.3     1  UNL1        0.0000
     77 H           9.6958    3.1391   -0.0530 H       1  UNL1        0.0000
     78 H           9.6865    1.3791    0.1433 H       1  UNL1        0.0000
     79 H           9.1067    2.4275    1.4480 H       1  UNL1        0.0000
     80 C           4.9810    6.6037    3.3044 C.3     1  UNL1        0.0000
     81 H           5.8191    7.2115    3.6421 H       1  UNL1        0.0000
     82 H           4.0454    7.0720    3.6087 H       1  UNL1        0.0000
     83 H           5.0156    6.5390    2.2183 H       1  UNL1        0.0000
     84 C           4.8523    5.4020    5.8002 C.3     1  UNL1        0.0000
     85 H           4.7880    4.5124    6.4243 H       1  UNL1        0.0000
     86 H           3.9326    5.9783    5.8967 H       1  UNL1        0.0000
     87 H           5.6952    6.0027    6.1386 H       1  UNL1        0.0000
     88 C           3.4684    4.2549    3.6361 C.3     1  UNL1        0.0000
     89 H           3.4157    4.0627    2.5660 H       1  UNL1        0.0000
     90 H           2.6797    4.9489    3.9257 H       1  UNL1        0.0000
     91 H           3.3314    3.3059    4.1515 H       1  UNL1        0.0000
@<TRIPOS>BOND
     1    35    34    1
     2    75    72    1
     3    74    72    1
     4    37    36    1
     5    72    64    1
     6    72    73    1
     7    34    36   ar
     8    34    32   ar
     9    63    62    1
    10    36    38   ar
    11    64    62   ar
    12    64    65   ar
    13    62    61   ar
    14    33    32    1
    15    71    68    1
    16    66    65    1
    17    65    67   ar
    18    32    30   ar
    19    70    68    1
    20    61    68    1
    21    61    60   ar
    22    68    69    1
    23    67    60   ar
    24    67    76    1
    25    38     6    1
    26    38    29   ar
    27    60     6    1
    28    77    76    1
    29    78    76    1
    30    76    79    1
    31    30    29   ar
    32    30    31    1
    33     6    39    1
    34    29     5    1
    35    39     5    1
    36    39     1    1
    37     5    27    1
    38    83    80    1
    39     8     7    1
    40    89    88    1
    41     7     1    1
    42    54    52    1
    43    80    82    1
    44    80    81    1
    45    80     2    1
    46    26    25    1
    47    27    25   ar
    48    27    28   ar
    49     1     2    1
    50     1    28    1
    51     1     9    1
    52    88    90    1
    53    88     2    1
    54    88    91    1
    55    43    42    1
    56    53    52    1
    57    52    44    1
    58    52    55    1
    59    25    23   ar
    60     2    84    1
    61    49    48    1
    62    50    48    1
    63    28    20   ar
    64    42    44   ar
    65    42    41   ar
    66    44    45   ar
    67    48    41    1
    68    48    51    1
    69    41    40   ar
    70    45    46    1
    71    45    47   ar
    72     9     3    1
    73     9     4    1
    74    23    24    1
    75    23    21   ar
    76    40    47   ar
    77    40     3    1
    78    20    21   ar
    79    20     4    1
    80    47    56    1
    81    84    86    1
    82    84    87    1
    83    84    85    1
    84    59    56    1
    85     3    10    1
    86    21    22    1
    87     4    19    1
    88    58    56    1
    89    56    57    1
    90    10    19   ar
    91    10    11   ar
    92    19    17   ar
    93    12    11    1
    94    11    13   ar
    95    17    18    1
    96    17    15   ar
    97    13    15   ar
    98    13    14    1
    99    15    16    1
