@<TRIPOS>MOLECULE
CSD_code = PAPYEK | q = 0 | S = 0 | Stoichiometry = C14H14CoNO3 | MND = 6
 33 33 0 0 0
SMALL
GASTEIGER

@<TRIPOS>ATOM
      1 CO          0.9130    2.6052    3.4025 Co.oh   1  UNL1        0.0000
      2 C          -0.7564    3.0371    3.7747 C.3     1  UNL1        0.0000
      3 C           1.6213    4.2445    3.2508 C.3     1  UNL1        0.0000
      4 C           1.1446    1.4582    4.7570 C.3     1  UNL1        0.0000
      5 C           3.5238    0.9235    2.7983 C.3     1  UNL1        0.0000
      6 C           2.4578    1.8708    2.2971 C.3     1  UNL1        0.0000
      7 C           1.2575    1.2995    1.7461 C.3     1  UNL1        0.0000
      8 C           0.3595    2.0676    1.0246 C.2     1  UNL1        0.0000
      9 C          -1.7907    2.2603   -0.1654 C.ar    1  UNL1        0.0000
     10 C          -1.7498    3.6365   -0.3844 C.ar    1  UNL1        0.0000
     11 C          -2.7807    4.2614   -1.0577 C.ar    1  UNL1        0.0000
     12 C          -3.8778    3.5507   -1.5299 C.ar    1  UNL1        0.0000
     13 C          -3.9167    2.1807   -1.3014 C.ar    1  UNL1        0.0000
     14 C          -2.8938    1.5433   -0.6297 C.ar    1  UNL1        0.0000
     15 C          -4.9757    4.2484   -2.2723 C.3     1  UNL1        0.0000
     16 N          -0.7854    1.5626    0.4904 N.2     1  UNL1        0.0000
     17 O          -1.8223    3.3537    4.0558 O.3     1  UNL1        0.0000
     18 O           2.1105    5.2812    3.2314 O.3     1  UNL1        0.0000
     19 O           1.2596    0.8147    5.6984 O.3     1  UNL1        0.0000
     20 H          -1.0275    0.6170    0.7597 H       1  UNL1        0.0000
     21 H           2.9034    2.6627    1.6903 H       1  UNL1        0.0000
     22 H           1.0470    0.2443    1.9016 H       1  UNL1        0.0000
     23 H           0.6614    3.0344    0.6421 H       1  UNL1        0.0000
     24 H          -0.9265    4.2299   -0.0197 H       1  UNL1        0.0000
     25 H          -2.7341    5.3294   -1.2152 H       1  UNL1        0.0000
     26 H          -4.7604    1.6034   -1.6512 H       1  UNL1        0.0000
     27 H          -2.9440    0.4768   -0.4574 H       1  UNL1        0.0000
     28 H           4.0928    0.5332    1.9509 H       1  UNL1        0.0000
     29 H           3.0944    0.0825    3.3387 H       1  UNL1        0.0000
     30 H           4.2207    1.4362    3.4570 H       1  UNL1        0.0000
     31 H          -5.2445    5.1788   -1.7760 H       1  UNL1        0.0000
     32 H          -4.6489    4.4927   -3.2836 H       1  UNL1        0.0000
     33 H          -5.8593    3.6191   -2.3424 H       1  UNL1        0.0000
@<TRIPOS>BOND
     1    32    15    1
     2    33    15    1
     3    15    31    1
     4    15    12    1
     5    26    13    1
     6    12    13   ar
     7    12    11   ar
     8    13    14   ar
     9    25    11    1
    10    11    10   ar
    11    14    27    1
    12    14     9   ar
    13    10     9   ar
    14    10    24    1
    15     9    16    1
    16    16    20    1
    17    16     8    2
    18    23     8    1
    19     8     7    1
    20    21     6    1
    21     7    22    1
    22     7     6    1
    23    28     5    1
    24     6     5    1
    25     6     1    1
    26     5    29    1
    27     5    30    1
    28    18     3    1
    29     3     1    1
    30     1     2    1
    31     1     4    1
    32     2    17    1
    33     4    19    1
