@<TRIPOS>MOLECULE
CSD_code = QEZHIP | q = 1 | S = 0 | Stoichiometry = C40H50CoN8(1+) | MND = 6
 99 108 0 0 0
SMALL
GASTEIGER

@<TRIPOS>ATOM
      1 CO          1.2711    7.7573   12.0708 Co.oh   1  UNL1        0.0000
      2 N           4.1418    6.5889   11.6982 N.pl3   1  UNL1        0.0000
      3 N           2.7320    5.4784   12.8785 N.pl3   1  UNL1        0.0000
      4 N          -1.2998    7.5047   13.2142 N.pl3   1  UNL1        0.0000
      5 N          -1.4154    9.3510   12.1227 N.pl3   1  UNL1        0.0000
      6 N           0.2005    5.9973    9.7197 N.pl3   1  UNL1        0.0000
      7 N           1.1078    7.8871    9.2523 N.pl3   1  UNL1        0.0000
      8 N           2.5217   10.1463   12.9084 N.pl3   1  UNL1        0.0000
      9 N           2.1757    9.0859   14.7444 N.pl3   1  UNL1        0.0000
     10 C           6.9160   10.6917   12.0249 C.3     1  UNL1        0.0000
     11 H           6.2211   11.0917   12.7605 H       1  UNL1        0.0000
     12 H           7.3353   11.5204   11.4611 H       1  UNL1        0.0000
     13 H           7.7252   10.1955   12.5553 H       1  UNL1        0.0000
     14 C           6.2070    9.7176   11.0927 C.3     1  UNL1        0.0000
     15 H           6.9175    9.3344   10.3581 H       1  UNL1        0.0000
     16 H           5.4162   10.2400   10.5496 H       1  UNL1        0.0000
     17 C           5.5963    8.5516   11.8645 C.3     1  UNL1        0.0000
     18 H           6.3859    7.9925   12.3715 H       1  UNL1        0.0000
     19 H           4.9185    8.9361   12.6293 H       1  UNL1        0.0000
     20 C           4.8125    7.6150   10.9417 C.3     1  UNL1        0.0000
     21 H           4.0612    8.1856   10.3937 H       1  UNL1        0.0000
     22 H           5.4896    7.1401   10.2268 H       1  UNL1        0.0000
     23 C           2.8753    6.6202   12.1484 C.3     1  UNL1        0.0000
     24 C           4.7766    5.4574   12.1419 C.2     1  UNL1        0.0000
     25 H           5.7948    5.2411   11.8924 H       1  UNL1        0.0000
     26 C           3.8871    4.7540   12.8835 C.2     1  UNL1        0.0000
     27 H           3.9916    3.8212   13.3973 H       1  UNL1        0.0000
     28 C           1.4829    5.2744   13.4777 C.ar    1  UNL1        0.0000
     29 C           1.0430    4.2227   14.2660 C.ar    1  UNL1        0.0000
     30 H           1.6816    3.3869   14.5083 H       1  UNL1        0.0000
     31 C          -0.2617    4.2651   14.7455 C.ar    1  UNL1        0.0000
     32 H          -0.6178    3.4546   15.3619 H       1  UNL1        0.0000
     33 C          -1.1227    5.3174   14.4541 C.ar    1  UNL1        0.0000
     34 H          -2.1299    5.3152   14.8423 H       1  UNL1        0.0000
     35 C          -0.6474    6.3480   13.6589 C.ar    1  UNL1        0.0000
     36 C           0.6511    6.3418   13.1687 C.ar    1  UNL1        0.0000
     37 C          -0.5732    8.3483   12.4282 C.3     1  UNL1        0.0000
     38 C          -2.5665    7.9757   13.3953 C.2     1  UNL1        0.0000
     39 H          -3.3042    7.4649   13.9786 H       1  UNL1        0.0000
     40 C          -2.6368    9.1423   12.7098 C.2     1  UNL1        0.0000
     41 H          -3.4510    9.8266   12.5887 H       1  UNL1        0.0000
     42 C          -1.1053   10.5397   11.3703 C.3     1  UNL1        0.0000
     43 H          -1.9801   10.8176   10.7764 H       1  UNL1        0.0000
     44 H          -0.2765   10.3155   10.6972 H       1  UNL1        0.0000
     45 C          -0.7146   11.6924   12.2983 C.3     1  UNL1        0.0000
     46 H          -1.5584   11.9472   12.9433 H       1  UNL1        0.0000
     47 H           0.1055   11.3625   12.9391 H       1  UNL1        0.0000
     48 C          -0.2815   12.9240   11.5085 C.3     1  UNL1        0.0000
     49 H          -1.1175   13.2798   10.9036 H       1  UNL1        0.0000
     50 H           0.5270   12.6465   10.8285 H       1  UNL1        0.0000
     51 C           0.1886   14.0408   12.4316 C.3     1  UNL1        0.0000
     52 H          -0.6105   14.3462   13.1027 H       1  UNL1        0.0000
     53 H           0.4981   14.9069   11.8531 H       1  UNL1        0.0000
     54 H           1.0318   13.7095   13.0341 H       1  UNL1        0.0000
     55 C          -4.0007    4.1629   11.6317 C.3     1  UNL1        0.0000
     56 H          -4.1486    5.0870   12.1867 H       1  UNL1        0.0000
     57 H          -4.4234    3.3442   12.2074 H       1  UNL1        0.0000
     58 H          -4.5454    4.2379   10.6937 H       1  UNL1        0.0000
     59 C          -2.5182    3.9240   11.3754 C.3     1  UNL1        0.0000
     60 H          -1.9927    3.8311   12.3285 H       1  UNL1        0.0000
     61 H          -2.3896    2.9865   10.8316 H       1  UNL1        0.0000
     62 C          -1.8992    5.0650   10.5733 C.3     1  UNL1        0.0000
     63 H          -2.3804    5.1301    9.5949 H       1  UNL1        0.0000
     64 H          -2.0710    6.0107   11.0912 H       1  UNL1        0.0000
     65 C          -0.3917    4.8706   10.3943 C.3     1  UNL1        0.0000
     66 H           0.0814    4.7651   11.3715 H       1  UNL1        0.0000
     67 H          -0.1984    3.9688    9.8070 H       1  UNL1        0.0000
     68 C           0.7774    7.0689   10.2911 C.3     1  UNL1        0.0000
     69 C           0.1645    6.1462    8.3572 C.2     1  UNL1        0.0000
     70 H          -0.2551    5.4002    7.7144 H       1  UNL1        0.0000
     71 C           0.7400    7.3361    8.0606 C.2     1  UNL1        0.0000
     72 H           0.9095    7.8122    7.1174 H       1  UNL1        0.0000
     73 C           1.7350    9.0950    9.5832 C.ar    1  UNL1        0.0000
     74 C           2.1736   10.1180    8.7571 C.ar    1  UNL1        0.0000
     75 H           2.0658   10.0689    7.6843 H       1  UNL1        0.0000
     76 C           2.7651   11.2290    9.3477 C.ar    1  UNL1        0.0000
     77 H           3.1105   12.0332    8.7169 H       1  UNL1        0.0000
     78 C           2.9254   11.3373   10.7249 C.ar    1  UNL1        0.0000
     79 H           3.3882   12.2158   11.1483 H       1  UNL1        0.0000
     80 C           2.4762   10.2927   11.5168 C.ar    1  UNL1        0.0000
     81 C           1.8816    9.1688   10.9622 C.ar    1  UNL1        0.0000
     82 C           2.0068    8.9902   13.4141 C.3     1  UNL1        0.0000
     83 C           3.0016   10.9435   13.9051 C.2     1  UNL1        0.0000
     84 H           3.4464   11.9006   13.7272 H       1  UNL1        0.0000
     85 C           2.7862   10.2720   15.0624 C.2     1  UNL1        0.0000
     86 H           3.0094   10.5447   16.0731 H       1  UNL1        0.0000
     87 C           1.8700    8.0781   15.7276 C.3     1  UNL1        0.0000
     88 H           1.0972    7.4237   15.3213 H       1  UNL1        0.0000
     89 H           1.4885    8.5731   16.6232 H       1  UNL1        0.0000
     90 C           3.1164    7.2538   16.0649 C.3     1  UNL1        0.0000
     91 H           3.5560    6.9013   15.1289 H       1  UNL1        0.0000
     92 H           3.8529    7.8906   16.5598 H       1  UNL1        0.0000
     93 C           2.7994    6.0530   16.9543 C.3     1  UNL1        0.0000
     94 H           2.0373    5.4389   16.4694 H       1  UNL1        0.0000
     95 H           3.7045    5.4497   17.0473 H       1  UNL1        0.0000
     96 C           2.3250    6.4477   18.3476 C.3     1  UNL1        0.0000
     97 H           3.0449    7.1089   18.8245 H       1  UNL1        0.0000
     98 H           2.2156    5.5626   18.9683 H       1  UNL1        0.0000
     99 H           1.3620    6.9501   18.3088 H       1  UNL1        0.0000
@<TRIPOS>BOND
     1    72    71    1
     2    75    74    1
     3    70    69    1
     4    71    69    2
     5    71     7    1
     6    69     6    1
     7    77    76    1
     8    74    76   ar
     9    74    73   ar
    10     7    73    1
    11     7    68    1
    12    76    78   ar
    13    73    81   ar
    14    63    62    1
    15     6    68    1
    16     6    65    1
    17    67    65    1
    18    22    20    1
    19    68     1    1
    20    15    14    1
    21    21    20    1
    22    65    62    1
    23    65    66    1
    24    16    14    1
    25    62    64    1
    26    62    59    1
    27    58    55    1
    28    44    42    1
    29    78    79    1
    30    78    80   ar
    31    43    42    1
    32    50    48    1
    33    61    59    1
    34    49    48    1
    35    20     2    1
    36    20    17    1
    37    81    80   ar
    38    81     1    1
    39    14    17    1
    40    14    10    1
    41    42     5    1
    42    42    45    1
    43    59    55    1
    44    59    60    1
    45    12    10    1
    46    48    45    1
    47    48    51    1
    48    80     8    1
    49    55    56    1
    50    55    57    1
    51     2    24    1
    52     2    23    1
    53    53    51    1
    54    17    18    1
    55    17    19    1
    56    25    24    1
    57    10    13    1
    58    10    11    1
    59     1    23    1
    60     1    37    1
    61     1    36    1
    62     1    82    1
    63     5    37    1
    64     5    40    1
    65    24    26    2
    66    23     3    1
    67    45    47    1
    68    45    46    1
    69    37     4    1
    70    51    54    1
    71    51    52    1
    72    41    40    1
    73    40    38    2
    74     3    26    1
    75     3    28    1
    76    26    27    1
    77     8    82    1
    78     8    83    1
    79    36    28   ar
    80    36    35   ar
    81     4    38    1
    82     4    35    1
    83    38    39    1
    84    82     9    1
    85    28    29   ar
    86    35    33   ar
    87    84    83    1
    88    83    85    2
    89    29    30    1
    90    29    31   ar
    91    33    31   ar
    92    33    34    1
    93     9    85    1
    94     9    87    1
    95    31    32    1
    96    85    86    1
    97    91    90    1
    98    88    87    1
    99    87    90    1
   100    87    89    1
   101    90    92    1
   102    90    93    1
   103    94    93    1
   104    93    95    1
   105    93    96    1
   106    99    96    1
   107    96    97    1
   108    96    98    1
