@<TRIPOS>MOLECULE
CSD_code = QIDNUO | q = 0 | S = 0 | Stoichiometry = C45H45CoN4O3 | MND = 5
 98 105 0 0 0
SMALL
GASTEIGER

@<TRIPOS>ATOM
      1 CO          2.7614    2.2593   10.7125 Co.oh   1  UNL1        0.0000
      2 N           4.7434    0.2551   11.4546 N.pl3   1  UNL1        0.0000
      3 N           3.4065    0.5885   13.0936 N.pl3   1  UNL1        0.0000
      4 N           2.5837    5.1153   10.1696 N.pl3   1  UNL1        0.0000
      5 N           1.9674    3.9857    8.4482 N.pl3   1  UNL1        0.0000
      6 O           5.7460    2.7253   12.3356 O.2     1  UNL1        0.0000
      7 O           0.9434    3.3681   12.6528 O.3     1  UNL1        0.0000
      8 O           2.4877    0.1135    8.7672 O.3     1  UNL1        0.0000
      9 C           3.6026    0.8900   11.7931 C.3     1  UNL1        0.0000
     10 C           2.3224    3.8549    9.7456 C.3     1  UNL1        0.0000
     11 C           2.5678    1.0654    9.4125 C.3     1  UNL1        0.0000
     12 C           1.8259    2.9323   12.0444 C.3     1  UNL1        0.0000
     13 C           4.9848    2.7851   10.0659 C.3     1  UNL1        0.0000
     14 H           4.9845    3.5392    9.2802 H       1  UNL1        0.0000
     15 C           5.5253    1.5265    9.5521 C.ar    1  UNL1        0.0000
     16 C           6.2008    1.5390    8.3277 C.ar    1  UNL1        0.0000
     17 H           6.3842    2.4914    7.8480 H       1  UNL1        0.0000
     18 C           6.6620    0.3825    7.7274 C.ar    1  UNL1        0.0000
     19 C           6.4275   -0.8327    8.3556 C.ar    1  UNL1        0.0000
     20 H           6.7480   -1.7488    7.8804 H       1  UNL1        0.0000
     21 C           5.7830   -0.8979    9.5837 C.ar    1  UNL1        0.0000
     22 C           5.5137   -2.2494   10.1831 C.3     1  UNL1        0.0000
     23 H           6.3592   -2.5885   10.7826 H       1  UNL1        0.0000
     24 H           5.3628   -2.9763    9.3874 H       1  UNL1        0.0000
     25 H           4.6266   -2.2398   10.8128 H       1  UNL1        0.0000
     26 C           7.3970    0.4270    6.4208 C.3     1  UNL1        0.0000
     27 H           8.4533    0.2078    6.5777 H       1  UNL1        0.0000
     28 H           7.3165    1.4091    5.9606 H       1  UNL1        0.0000
     29 H           7.0011   -0.3180    5.7326 H       1  UNL1        0.0000
     30 C           5.3726    0.2870   10.1904 C.ar    1  UNL1        0.0000
     31 C           5.2692   -0.3979   12.5339 C.2     1  UNL1        0.0000
     32 H           6.2053   -0.9125   12.4904 H       1  UNL1        0.0000
     33 C           4.4259   -0.1924   13.5681 C.2     1  UNL1        0.0000
     34 H           4.4571   -0.5309   14.5830 H       1  UNL1        0.0000
     35 C           2.3493    1.0451   13.9189 C.ar    1  UNL1        0.0000
     36 C           2.6169    2.0177   14.8841 C.ar    1  UNL1        0.0000
     37 C           1.5650    2.4589   15.6729 C.ar    1  UNL1        0.0000
     38 H           1.7522    3.2251   16.4119 H       1  UNL1        0.0000
     39 C           0.2828    1.9503   15.5300 C.ar    1  UNL1        0.0000
     40 C           0.0559    0.9621   14.5821 C.ar    1  UNL1        0.0000
     41 H          -0.9379    0.5531   14.4678 H       1  UNL1        0.0000
     42 C           1.0751    0.4956   13.7683 C.ar    1  UNL1        0.0000
     43 C           0.8214   -0.5561   12.7320 C.3     1  UNL1        0.0000
     44 H          -0.1840   -0.9569   12.8302 H       1  UNL1        0.0000
     45 H           1.5365   -1.3730   12.8251 H       1  UNL1        0.0000
     46 H           0.9317   -0.1281   11.7337 H       1  UNL1        0.0000
     47 C          -0.8422    2.4761   16.3685 C.3     1  UNL1        0.0000
     48 H          -1.2805    3.3500   15.8859 H       1  UNL1        0.0000
     49 H          -0.4871    2.7769   17.3516 H       1  UNL1        0.0000
     50 H          -1.6230    1.7285   16.4868 H       1  UNL1        0.0000
     51 C           3.9937    2.5715   15.0677 C.3     1  UNL1        0.0000
     52 H           4.5852    1.9084   15.7006 H       1  UNL1        0.0000
     53 H           3.9443    3.5436   15.5503 H       1  UNL1        0.0000
     54 H           4.5185    2.6735   14.1185 H       1  UNL1        0.0000
     55 C           5.3219    3.3240   11.3441 C.2     1  UNL1        0.0000
     56 C           5.2300    4.8789   11.4024 C.3     1  UNL1        0.0000
     57 H           6.1316    5.2123   11.9199 H       1  UNL1        0.0000
     58 H           5.2354    5.2820   10.3888 H       1  UNL1        0.0000
     59 C           4.0330    5.3699   12.1429 C.ar    1  UNL1        0.0000
     60 C           4.1441    5.7152   13.4857 C.ar    1  UNL1        0.0000
     61 H           5.0978    5.5786   13.9738 H       1  UNL1        0.0000
     62 C           3.0713    6.2189   14.1987 C.ar    1  UNL1        0.0000
     63 C           1.8642    6.4132   13.5387 C.ar    1  UNL1        0.0000
     64 H           1.0250    6.8263   14.0797 H       1  UNL1        0.0000
     65 C           1.7058    6.0712   12.2071 C.ar    1  UNL1        0.0000
     66 C           2.7926    5.5182   11.5219 C.ar    1  UNL1        0.0000
     67 C           0.3806    6.2584   11.5295 C.3     1  UNL1        0.0000
     68 H           0.4549    6.9647   10.7025 H       1  UNL1        0.0000
     69 H          -0.3534    6.6343   12.2370 H       1  UNL1        0.0000
     70 H           0.0198    5.3099   11.1332 H       1  UNL1        0.0000
     71 C           3.1998    6.5804   15.6476 C.3     1  UNL1        0.0000
     72 H           3.1108    7.6590   15.7770 H       1  UNL1        0.0000
     73 H           4.1613    6.2651   16.0449 H       1  UNL1        0.0000
     74 H           2.4064    6.1111   16.2272 H       1  UNL1        0.0000
     75 C           2.4194    6.0084    9.1440 C.2     1  UNL1        0.0000
     76 H           2.5995    7.0570    9.2689 H       1  UNL1        0.0000
     77 C           2.0321    5.3001    8.0598 C.2     1  UNL1        0.0000
     78 H           1.7895    5.6127    7.0644 H       1  UNL1        0.0000
     79 C           1.4773    2.9506    7.6068 C.ar    1  UNL1        0.0000
     80 C           2.2590    2.4633    6.5594 C.ar    1  UNL1        0.0000
     81 C           1.7296    1.4714    5.7481 C.ar    1  UNL1        0.0000
     82 H           2.3336    1.0772    4.9436 H       1  UNL1        0.0000
     83 C           0.4542    0.9653    5.9514 C.ar    1  UNL1        0.0000
     84 C          -0.3075    1.4807    6.9893 C.ar    1  UNL1        0.0000
     85 H          -1.3050    1.1007    7.1575 H       1  UNL1        0.0000
     86 C           0.1819    2.4737    7.8228 C.ar    1  UNL1        0.0000
     87 C          -0.6551    3.0163    8.9399 C.3     1  UNL1        0.0000
     88 H          -0.2245    2.7268    9.9003 H       1  UNL1        0.0000
     89 H          -1.6679    2.6267    8.8830 H       1  UNL1        0.0000
     90 H          -0.6968    4.1048    8.9013 H       1  UNL1        0.0000
     91 C          -0.0764   -0.1154    5.0605 C.3     1  UNL1        0.0000
     92 H          -0.0734    0.2122    4.0217 H       1  UNL1        0.0000
     93 H          -1.0914   -0.3873    5.3379 H       1  UNL1        0.0000
     94 H           0.5530   -1.0012    5.1320 H       1  UNL1        0.0000
     95 C           3.6612    2.9346    6.3382 C.3     1  UNL1        0.0000
     96 H           4.3354    2.3156    6.9313 H       1  UNL1        0.0000
     97 H           3.7983    3.9703    6.6396 H       1  UNL1        0.0000
     98 H           3.9391    2.8314    5.2918 H       1  UNL1        0.0000
@<TRIPOS>BOND
     1    92    91    1
     2    82    81    1
     3    91    94    1
     4    91    93    1
     5    91    83    1
     6    98    95    1
     7    29    26    1
     8    81    83   ar
     9    81    80   ar
    10    83    84   ar
    11    28    26    1
    12    95    80    1
    13    95    97    1
    14    95    96    1
    15    26    27    1
    16    26    18    1
    17    80    79   ar
    18    84    85    1
    19    84    86   ar
    20    78    77    1
    21    79    86   ar
    22    79     5    1
    23    18    16   ar
    24    18    19   ar
    25    86    87    1
    26    17    16    1
    27    20    19    1
    28    77     5    1
    29    77    75    2
    30    16    15   ar
    31    19    21   ar
    32     5    10    1
    33     8    11    1
    34    89    87    1
    35    90    87    1
    36    87    88    1
    37    75    76    1
    38    75     4    1
    39    14    13    1
    40    24    22    1
    41    11     1    1
    42    15    13    1
    43    15    30   ar
    44    21    22    1
    45    21    30   ar
    46    10     4    1
    47    10     1    1
    48    13     1    1
    49    13    55    1
    50     4    66    1
    51    22    23    1
    52    22    25    1
    53    30     2    1
    54    58    56    1
    55    68    67    1
    56     1     9    1
    57     1    12    1
    58    70    67    1
    59    55    56    1
    60    55     6    2
    61    56    57    1
    62    56    59    1
    63     2     9    1
    64     2    31    1
    65    66    59   ar
    66    66    65   ar
    67    67    65    1
    68    67    69    1
    69    46    43    1
    70     9     3    1
    71    12     7    1
    72    59    60   ar
    73    65    63   ar
    74    32    31    1
    75    31    33    2
    76    43    45    1
    77    43    44    1
    78    43    42    1
    79     3    33    1
    80     3    35    1
    81    60    61    1
    82    60    62   ar
    83    63    64    1
    84    63    62   ar
    85    33    34    1
    86    42    35   ar
    87    42    40   ar
    88    35    36   ar
    89    54    51    1
    90    62    71    1
    91    41    40    1
    92    40    39   ar
    93    36    51    1
    94    36    37   ar
    95    51    53    1
    96    51    52    1
    97    39    37   ar
    98    39    47    1
    99    71    72    1
   100    71    73    1
   101    71    74    1
   102    37    38    1
   103    48    47    1
   104    47    50    1
   105    47    49    1
