@<TRIPOS>MOLECULE
CSD_code = ULUPUN | q = 0 | S = 0 | Stoichiometry = C13H32CoOP3 | MND = 6
 50 46 0 0 0
SMALL
GASTEIGER

@<TRIPOS>ATOM
      1 CO          1.8613    1.3693    8.1374 Co.oh   1  UNL1        0.0000
      2 P           2.9782    2.4657    9.9302 P.3     2  UNL2        0.0000
      3 P           2.7560    2.4980    6.4501 P.3     3  UNL3        0.0000
      4 P          -0.1897    2.2037    8.1670 P.3     4  UNL4        0.0000
      5 O           5.2790   -0.0831    8.1967 O.2     1  UNL1        0.0000
      6 C           1.1822   -0.2593    9.1675 C.3     1  UNL1        0.0000
      7 H           1.8147   -0.3707   10.0390 H       1  UNL1        0.0000
      8 H           0.1448   -0.5036    9.3766 H       1  UNL1        0.0000
      9 C           1.6738   -0.6026    7.8982 C.3     1  UNL1        0.0000
     10 H           1.0026   -0.9846    7.1332 H       1  UNL1        0.0000
     11 C           3.0181   -0.3449    7.5588 C.3     1  UNL1        0.0000
     12 H           3.3207   -0.5211    6.5290 H       1  UNL1        0.0000
     13 C           4.1010   -0.2548    8.4891 C.2     1  UNL1        0.0000
     14 H           3.8332   -0.4002    9.5564 H       1  UNL1        0.0000
     15 C           2.8701    1.7634   11.6292 C.3     2  UNL2        0.0000
     16 H           3.2843    2.4591   12.3579 H       2  UNL2        0.0000
     17 H           3.4280    0.8302   11.6690 H       2  UNL2        0.0000
     18 H           1.8280    1.5608   11.8696 H       2  UNL2        0.0000
     19 C           2.4105    4.1787   10.3254 C.3     2  UNL2        0.0000
     20 H           1.3781    4.1479   10.6647 H       2  UNL2        0.0000
     21 H           2.4580    4.7905    9.4276 H       2  UNL2        0.0000
     22 H           3.0335    4.6226   11.1007 H       2  UNL2        0.0000
     23 C           4.7841    2.8077    9.8677 C.3     2  UNL2        0.0000
     24 H           4.9703    3.5786    9.1217 H       2  UNL2        0.0000
     25 H           5.3176    1.9069    9.5729 H       2  UNL2        0.0000
     26 H           5.1443    3.1494   10.8375 H       2  UNL2        0.0000
     27 C           2.7352    4.3377    6.3095 C.3     3  UNL3        0.0000
     28 H           3.2924    4.7585    7.1445 H       3  UNL3        0.0000
     29 H           1.7184    4.7167    6.3433 H       3  UNL3        0.0000
     30 H           3.2057    4.6451    5.3759 H       3  UNL3        0.0000
     31 C           4.5401    2.2620    6.1050 C.3     3  UNL3        0.0000
     32 H           4.7932    1.2061    6.0951 H       3  UNL3        0.0000
     33 H           5.1167    2.7267    6.9016 H       3  UNL3        0.0000
     34 H           4.8015    2.7184    5.1500 H       3  UNL3        0.0000
     35 C           2.0494    2.0644    4.8083 C.3     3  UNL3        0.0000
     36 H           2.5753    2.5834    4.0077 H       3  UNL3        0.0000
     37 H           0.9948    2.3334    4.7872 H       3  UNL3        0.0000
     38 H           2.1346    0.9895    4.6625 H       3  UNL3        0.0000
     39 C          -1.4049    1.2117    7.2083 C.3     4  UNL4        0.0000
     40 H          -1.4227    0.1955    7.5942 H       4  UNL4        0.0000
     41 H          -1.0938    1.1794    6.1661 H       4  UNL4        0.0000
     42 H          -2.4010    1.6469    7.2792 H       4  UNL4        0.0000
     43 C          -1.0670    2.2718    9.7831 C.3     4  UNL4        0.0000
     44 H          -2.1124    2.5418    9.6378 H       4  UNL4        0.0000
     45 H          -0.5871    3.0124   10.4185 H       4  UNL4        0.0000
     46 H          -1.0049    1.3057   10.2758 H       4  UNL4        0.0000
     47 C          -0.6607    3.8767    7.5507 C.3     4  UNL4        0.0000
     48 H          -0.4458    3.9430    6.4864 H       4  UNL4        0.0000
     49 H          -0.0819    4.6323    8.0777 H       4  UNL4        0.0000
     50 H          -1.7227    4.0565    7.7136 H       4  UNL4        0.0000
@<TRIPOS>BOND
     1    36    35    1
     2    38    35    1
     3    37    35    1
     4    35     3    1
     5    34    31    1
     6    30    27    1
     7    32    31    1
     8    31     3    1
     9    31    33    1
    10    41    39    1
    11    27    29    1
    12    27     3    1
    13    27    28    1
    14    48    47    1
    15    12    11    1
    16    10     9    1
    17    39    42    1
    18    39    40    1
    19    39     4    1
    20    47    50    1
    21    47    49    1
    22    47     4    1
    23    11     9    1
    24    11    13    1
    25     9     1    1
    26     9     6    1
    27     4    43    1
    28     5    13    2
    29    13    14    1
    30    24    23    1
    31     6     8    1
    32     6     7    1
    33    21    19    1
    34    25    23    1
    35    44    43    1
    36    43    46    1
    37    43    45    1
    38    23     2    1
    39    23    26    1
    40     2    19    1
    41     2    15    1
    42    19    20    1
    43    19    22    1
    44    15    17    1
    45    15    18    1
    46    15    16    1
