@<TRIPOS>MOLECULE
CSD_code = VIKNIO | q = 0 | S = 0 | Stoichiometry = C27H38BCoN12 | MND = 5
 79 84 0 0 0
SMALL
GASTEIGER

@<TRIPOS>ATOM
      1 CO         10.3090    9.7901    8.9192 Co.oh   1  UNL1        0.0000
      2 B          11.7079   10.2639    6.2690 B       1  UNL1        0.0000
      3 N          11.0221    8.8861    6.2836 N.pl3   1  UNL1        0.0000
      4 N          10.1563    7.1872    7.3084 N.pl3   1  UNL1        0.0000
      5 N          10.6523   11.3114    6.6758 N.pl3   1  UNL1        0.0000
      6 N           9.3390   12.5400    7.8983 N.pl3   1  UNL1        0.0000
      7 N          12.6922   10.1342    7.4609 N.pl3   1  UNL1        0.0000
      8 N          13.4107    9.7629    9.4699 N.pl3   1  UNL1        0.0000
      9 N          10.2024   10.4685   10.6534 N.2     1  UNL1        0.0000
     10 N           9.4317   10.4835   11.5376 N.2     1  UNL1        0.0000
     11 N           8.8082   10.5380   12.4847 N.2     1  UNL1        0.0000
     12 N           8.4763    9.5095    8.8843 N.2     1  UNL1        0.0000
     13 N           7.6472    9.6029    8.0627 N.2     1  UNL1        0.0000
     14 N           6.7590    9.6571    7.3574 N.2     1  UNL1        0.0000
     15 C          10.4597    8.5025    7.4380 C.3     1  UNL1        0.0000
     16 C          11.0792    7.8316    5.4241 C.2     1  UNL1        0.0000
     17 H          11.5269    7.8900    4.4550 H       1  UNL1        0.0000
     18 C          10.5218    6.7718    6.0516 C.2     1  UNL1        0.0000
     19 H          10.3671    5.7778    5.6920 H       1  UNL1        0.0000
     20 C           9.5794    6.2716    8.2973 C.3     1  UNL1        0.0000
     21 C          10.1160    4.8523    8.0588 C.3     1  UNL1        0.0000
     22 H           9.6543    4.3859    7.1923 H       1  UNL1        0.0000
     23 H           9.8844    4.2376    8.9250 H       1  UNL1        0.0000
     24 H          11.1963    4.8612    7.9257 H       1  UNL1        0.0000
     25 C           8.0540    6.2603    8.1598 C.3     1  UNL1        0.0000
     26 H           7.6270    7.1984    8.4967 H       1  UNL1        0.0000
     27 H           7.6350    5.4579    8.7615 H       1  UNL1        0.0000
     28 H           7.7663    6.1039    7.1220 H       1  UNL1        0.0000
     29 C           9.9981    6.6963    9.7037 C.3     1  UNL1        0.0000
     30 H          11.0716    6.5714    9.8284 H       1  UNL1        0.0000
     31 H           9.4867    6.0849   10.4427 H       1  UNL1        0.0000
     32 H           9.7311    7.7387    9.8925 H       1  UNL1        0.0000
     33 C          10.0713   11.3934    7.8801 C.3     1  UNL1        0.0000
     34 C          10.2701   12.3719    5.9130 C.2     1  UNL1        0.0000
     35 H          10.6026   12.5052    4.9053 H       1  UNL1        0.0000
     36 C           9.4533   13.1361    6.6678 C.2     1  UNL1        0.0000
     37 H           8.9548   14.0396    6.3982 H       1  UNL1        0.0000
     38 C           8.6805   13.2239    9.0284 C.3     1  UNL1        0.0000
     39 C           8.0695   14.5563    8.5787 C.3     1  UNL1        0.0000
     40 H           7.2974   14.4078    7.8274 H       1  UNL1        0.0000
     41 H           8.8231   15.2444    8.2025 H       1  UNL1        0.0000
     42 H           7.6038   15.0196    9.4449 H       1  UNL1        0.0000
     43 C           9.7544   13.5278   10.0767 C.3     1  UNL1        0.0000
     44 H           9.2956   13.9386   10.9712 H       1  UNL1        0.0000
     45 H          10.4687   14.2491    9.6839 H       1  UNL1        0.0000
     46 H          10.2901   12.6231   10.3421 H       1  UNL1        0.0000
     47 C           7.5419   12.3780    9.5940 C.3     1  UNL1        0.0000
     48 H           6.8077   12.1702    8.8184 H       1  UNL1        0.0000
     49 H           7.0530   12.9147   10.4020 H       1  UNL1        0.0000
     50 H           7.8998   11.4355    9.9851 H       1  UNL1        0.0000
     51 C          12.2820    9.9484    8.7326 C.3     1  UNL1        0.0000
     52 C          14.0454   10.0200    7.3869 C.2     1  UNL1        0.0000
     53 H          14.5818   10.0735    6.4631 H       1  UNL1        0.0000
     54 C          14.5017    9.8027    8.6400 C.2     1  UNL1        0.0000
     55 H          15.5082    9.6725    8.9710 H       1  UNL1        0.0000
     56 C          13.5282    9.6437   10.9286 C.3     1  UNL1        0.0000
     57 C          12.6299    8.5128   11.4272 C.3     1  UNL1        0.0000
     58 H          11.5993    8.6995   11.1436 H       1  UNL1        0.0000
     59 H          12.6800    8.4486   12.5104 H       1  UNL1        0.0000
     60 H          12.9533    7.5623   11.0066 H       1  UNL1        0.0000
     61 C          14.9680    9.3173   11.3395 C.3     1  UNL1        0.0000
     62 H          15.3211    8.4034   10.8659 H       1  UNL1        0.0000
     63 H          14.9900    9.1656   12.4158 H       1  UNL1        0.0000
     64 H          15.6483   10.1334   11.1079 H       1  UNL1        0.0000
     65 C          13.1323   10.9849   11.5508 C.3     1  UNL1        0.0000
     66 H          13.7702   11.7800   11.1698 H       1  UNL1        0.0000
     67 H          13.2347   10.9415   12.6313 H       1  UNL1        0.0000
     68 H          12.1002   11.2137   11.3049 H       1  UNL1        0.0000
     69 C          12.3674   10.7445    4.8829 C.ar    1  UNL1        0.0000
     70 C          11.8344   10.3844    3.6450 C.ar    1  UNL1        0.0000
     71 H          10.9631    9.7475    3.6045 H       1  UNL1        0.0000
     72 C          12.3621   10.8560    2.4553 C.ar    1  UNL1        0.0000
     73 H          11.9269   10.5473    1.5151 H       1  UNL1        0.0000
     74 C          13.4351   11.7292    2.4678 C.ar    1  UNL1        0.0000
     75 H          13.8551   12.0937    1.5415 H       1  UNL1        0.0000
     76 C          13.9422   12.1547    3.6830 C.ar    1  UNL1        0.0000
     77 H          14.7532   12.8690    3.7102 H       1  UNL1        0.0000
     78 C          13.4066   11.6766    4.8659 C.ar    1  UNL1        0.0000
     79 H          13.7918   12.0602    5.8001 H       1  UNL1        0.0000
@<TRIPOS>BOND
     1    73    72    1
     2    75    74    1
     3    72    74   ar
     4    72    70   ar
     5    74    76   ar
     6    71    70    1
     7    70    69   ar
     8    76    77    1
     9    76    78   ar
    10    17    16    1
    11    78    69   ar
    12    78    79    1
    13    69     2    1
    14    35    34    1
    15    16    18    2
    16    16     3    1
    17    19    18    1
    18    34    36    2
    19    34     5    1
    20    18     4    1
    21     2     3    1
    22     2     5    1
    23     2     7    1
    24     3    15    1
    25    37    36    1
    26    53    52    1
    27    36     6    1
    28     5    33    1
    29    28    25    1
    30    22    21    1
    31     4    15    1
    32     4    20    1
    33    14    13    2
    34    52     7    1
    35    52    54    2
    36    15     1    1
    37     7    51    1
    38    40    39    1
    39    33     6    1
    40    33     1    1
    41     6    38    1
    42    24    21    1
    43    21    20    1
    44    21    23    1
    45    13    12    2
    46    25    20    1
    47    25    26    1
    48    25    27    1
    49    41    39    1
    50    20    29    1
    51    39    38    1
    52    39    42    1
    53    54    55    1
    54    54     8    1
    55    51     1    1
    56    51     8    1
    57    48    47    1
    58    12     1    1
    59     1     9    1
    60    38    47    1
    61    38    43    1
    62     8    56    1
    63    47    50    1
    64    47    49    1
    65    45    43    1
    66    29    30    1
    67    29    32    1
    68    29    31    1
    69    43    46    1
    70    43    44    1
    71     9    10    2
    72    62    61    1
    73    56    61    1
    74    56    57    1
    75    56    65    1
    76    60    57    1
    77    64    61    1
    78    58    57    1
    79    66    65    1
    80    68    65    1
    81    61    63    1
    82    57    59    1
    83    10    11    2
    84    65    67    1
