@<TRIPOS>MOLECULE
CSD_code = WEPHEG | q = 0 | S = 0 | Stoichiometry = C28H32CoN3 | MND = 6
 64 68 0 0 0
SMALL
GASTEIGER

@<TRIPOS>ATOM
      1 CO          9.7414    4.2234    5.6278 Co.oh   1  UNL1        0.0000
      2 N          10.7082    5.4793    6.4169 N.pl3   1  UNL1        0.0000
      3 N           8.4965    4.7192    7.1618 N.pl3   1  UNL1        0.0000
      4 N          11.4914    3.7637    4.8797 N.pl3   1  UNL1        0.0000
      5 C          12.0352    5.6252    6.0885 C.2     1  UNL1        0.0000
      6 C          12.8244    6.5993    6.6887 C.2     1  UNL1        0.0000
      7 H          13.8543    6.7132    6.3887 H       1  UNL1        0.0000
      8 C          12.2860    7.4048    7.6792 C.2     1  UNL1        0.0000
      9 H          12.8831    8.1734    8.1451 H       1  UNL1        0.0000
     10 C          10.9817    7.1765    8.0997 C.2     1  UNL1        0.0000
     11 H          10.5620    7.7503    8.9109 H       1  UNL1        0.0000
     12 C          10.2225    6.1951    7.4790 C.2     1  UNL1        0.0000
     13 C          12.4395    4.6355    5.1532 C.2     1  UNL1        0.0000
     14 C           8.9181    5.7508    7.8499 C.3     1  UNL1        0.0000
     15 C          13.8327    4.5808    4.6051 C.3     1  UNL1        0.0000
     16 H          14.5540    4.5831    5.4218 H       1  UNL1        0.0000
     17 H          14.0288    5.4535    3.9820 H       1  UNL1        0.0000
     18 H          13.9821    3.6831    4.0104 H       1  UNL1        0.0000
     19 C           8.1700    6.3893    8.9811 C.3     1  UNL1        0.0000
     20 H           7.8920    7.4114    8.7252 H       1  UNL1        0.0000
     21 H           8.8033    6.4247    9.8665 H       1  UNL1        0.0000
     22 H           7.2694    5.8291    9.2181 H       1  UNL1        0.0000
     23 C           7.2288    4.1794    7.4436 C.ar    1  UNL1        0.0000
     24 C           6.0480    4.8384    7.0764 C.ar    1  UNL1        0.0000
     25 C           4.8303    4.2099    7.3053 C.ar    1  UNL1        0.0000
     26 H           3.9209    4.7147    7.0115 H       1  UNL1        0.0000
     27 C           4.7664    2.9686    7.9068 C.ar    1  UNL1        0.0000
     28 H           3.8107    2.4947    8.0737 H       1  UNL1        0.0000
     29 C           5.9335    2.3437    8.3103 C.ar    1  UNL1        0.0000
     30 H           5.8882    1.3840    8.8046 H       1  UNL1        0.0000
     31 C           7.1664    2.9349    8.0923 C.ar    1  UNL1        0.0000
     32 C           8.4268    2.2851    8.5714 C.3     1  UNL1        0.0000
     33 H           9.1994    2.3586    7.8051 H       1  UNL1        0.0000
     34 H           8.2555    1.2401    8.8162 H       1  UNL1        0.0000
     35 H           8.7970    2.7950    9.4616 H       1  UNL1        0.0000
     36 C           6.0439    6.2158    6.4753 C.3     1  UNL1        0.0000
     37 H           5.4110    6.2406    5.5890 H       1  UNL1        0.0000
     38 H           7.0428    6.5449    6.2031 H       1  UNL1        0.0000
     39 H           5.6313    6.9266    7.1928 H       1  UNL1        0.0000
     40 C          11.7687    2.7096    3.9898 C.ar    1  UNL1        0.0000
     41 C          11.8038    2.9260    2.6055 C.ar    1  UNL1        0.0000
     42 C          12.0244    1.8454    1.7631 C.ar    1  UNL1        0.0000
     43 H          12.0453    2.0093    0.6949 H       1  UNL1        0.0000
     44 C          12.2202    0.5747    2.2704 C.ar    1  UNL1        0.0000
     45 H          12.3889   -0.2556    1.6009 H       1  UNL1        0.0000
     46 C          12.2058    0.3724    3.6389 C.ar    1  UNL1        0.0000
     47 H          12.3709   -0.6177    4.0390 H       1  UNL1        0.0000
     48 C          11.9853    1.4266    4.5107 C.ar    1  UNL1        0.0000
     49 C          12.0118    1.2204    5.9935 C.3     1  UNL1        0.0000
     50 H          12.9570    1.5760    6.4059 H       1  UNL1        0.0000
     51 H          11.9009    0.1678    6.2409 H       1  UNL1        0.0000
     52 H          11.2121    1.7926    6.4650 H       1  UNL1        0.0000
     53 C          11.6213    4.2989    2.0258 C.3     1  UNL1        0.0000
     54 H          12.5927    4.7507    1.8196 H       1  UNL1        0.0000
     55 H          11.0837    4.9487    2.7129 H       1  UNL1        0.0000
     56 H          11.0738    4.2446    1.0866 H       1  UNL1        0.0000
     57 C           8.6836    2.5351    5.0601 C.3     1  UNL1        0.0000
     58 H           7.7730    2.5185    5.6481 H       1  UNL1        0.0000
     59 H           9.1026    1.5481    4.8961 H       1  UNL1        0.0000
     60 C           8.7611    3.4410    3.9866 C.3     1  UNL1        0.0000
     61 H           9.3619    3.1795    3.1215 H       1  UNL1        0.0000
     62 C           8.2452    4.7284    4.0945 C.3     1  UNL1        0.0000
     63 H           7.3512    4.8824    4.6792 H       1  UNL1        0.0000
     64 H           8.3696    5.4201    3.2715 H       1  UNL1        0.0000
@<TRIPOS>BOND
     1    43    42    1
     2    56    53    1
     3    45    44    1
     4    42    44   ar
     5    42    41   ar
     6    54    53    1
     7    53    41    1
     8    53    55    1
     9    44    46   ar
    10    41    40   ar
    11    61    60    1
    12    64    62    1
    13    46    47    1
    14    46    48   ar
    15    17    15    1
    16    60    62    1
    17    60    57    1
    18    60     1    1
    19    40    48   ar
    20    40     4    1
    21    18    15    1
    22    62    63    1
    23    48    49    1
    24    15    13    1
    25    15    16    1
    26     4    13    1
    27     4     1    1
    28    59    57    1
    29    57    58    1
    30    13     5    2
    31    37    36    1
    32     1     2    1
    33     1     3    1
    34    49    51    1
    35    49    50    1
    36    49    52    1
    37     5     2    1
    38     5     6    1
    39    38    36    1
    40     7     6    1
    41     2    12    1
    42    36    24    1
    43    36    39    1
    44     6     8    2
    45    26    25    1
    46    24    25   ar
    47    24    23   ar
    48     3    23    1
    49     3    14    1
    50    25    27   ar
    51    23    31   ar
    52    12    14    1
    53    12    10    2
    54     8    10    1
    55     8     9    1
    56    33    32    1
    57    14    19    1
    58    27    28    1
    59    27    29   ar
    60    31    29   ar
    61    31    32    1
    62    10    11    1
    63    29    30    1
    64    32    34    1
    65    32    35    1
    66    20    19    1
    67    19    22    1
    68    19    21    1
