@<TRIPOS>MOLECULE
CSD_code = XAKGEY | q = 0 | S = 0 | Stoichiometry = C56H48CoN6P | MND = 5
 112 123 0 0 0
SMALL
GASTEIGER

@<TRIPOS>ATOM
      1 CO         -0.7359    5.0762    4.6121 Co.oh   1  UNL1        0.0000
      2 P           1.0439    4.7898    3.0650 P.3     1  UNL1        0.0000
      3 N          -2.1068    5.2280    3.6983 N.3     1  UNL1        0.0000
      4 N          -0.8383    8.1621    4.5362 N.pl3   1  UNL1        0.0000
      5 N          -0.0051    2.7473    6.0303 N.pl3   1  UNL1        0.0000
      6 N          -1.7076    2.1625    4.8022 N.pl3   1  UNL1        0.0000
      7 N          -3.0879    5.3307    3.1587 N.3     1  UNL1        0.0000
      8 N           0.6944    7.2183    5.7693 N.pl3   1  UNL1        0.0000
      9 C          -0.3866    6.9590    4.9646 C.3     1  UNL1        0.0000
     10 C          -2.0246    8.3742    3.7857 C.ar    1  UNL1        0.0000
     11 C           0.5685    4.9517    5.9544 C.ar    1  UNL1        0.0000
     12 C          -0.1281    1.3891    6.1827 C.ar    1  UNL1        0.0000
     13 C          -1.9498    8.7280    2.4410 C.ar    1  UNL1        0.0000
     14 C           2.5475    5.7146    3.5473 C.ar    1  UNL1        0.0000
     15 C           0.9335    8.5672    5.8414 C.ar    1  UNL1        0.0000
     16 C          -0.9581    3.2273    5.1680 C.3     1  UNL1        0.0000
     17 C          -1.2337    1.0154    5.3924 C.ar    1  UNL1        0.0000
     18 C          -2.8310    1.9008    2.6609 C.ar    1  UNL1        0.0000
     19 C           0.8517    5.3992    1.3461 C.ar    1  UNL1        0.0000
     20 C          -2.8872    2.2182    4.0153 C.ar    1  UNL1        0.0000
     21 C           1.7145    3.1211    2.7170 C.ar    1  UNL1        0.0000
     22 C          -4.0850    2.5854    4.6275 C.ar    1  UNL1        0.0000
     23 C           0.4628    6.2820   -1.2629 C.ar    1  UNL1        0.0000
     24 H           0.3143    6.6313   -2.2744 H       1  UNL1        0.0000
     25 C           1.8785    3.6052    7.4769 C.ar    1  UNL1        0.0000
     26 H           2.1255    2.6629    7.9415 H       1  UNL1        0.0000
     27 C          -1.6624   -0.2986    5.3077 C.ar    1  UNL1        0.0000
     28 H          -2.5174   -0.5646    4.7047 H       1  UNL1        0.0000
     29 C           1.9288    5.8579    0.5916 C.ar    1  UNL1        0.0000
     30 H           2.9218    5.8664    1.0185 H       1  UNL1        0.0000
     31 C           2.5813    4.7490    7.8324 C.ar    1  UNL1        0.0000
     32 H           3.3778    4.6677    8.5578 H       1  UNL1        0.0000
     33 C           3.6901    5.1398    4.0894 C.ar    1  UNL1        0.0000
     34 H           3.7849    4.0670    4.1557 H       1  UNL1        0.0000
     35 C           2.2755    5.9980    7.3077 C.ar    1  UNL1        0.0000
     36 H           2.8297    6.8624    7.6378 H       1  UNL1        0.0000
     37 C           2.4763    7.1040    3.4558 C.ar    1  UNL1        0.0000
     38 H           1.5960    7.5601    3.0249 H       1  UNL1        0.0000
     39 C          -4.4118    8.4402    3.6977 C.ar    1  UNL1        0.0000
     40 H          -5.3704    8.3287    4.1834 H       1  UNL1        0.0000
     41 C          -3.2558    8.2384    4.4314 C.ar    1  UNL1        0.0000
     42 C          -4.3675    8.7761    2.3511 C.ar    1  UNL1        0.0000
     43 C           0.8698    3.7214    6.5340 C.ar    1  UNL1        0.0000
     44 C           0.1527   -0.8839    6.7939 C.ar    1  UNL1        0.0000
     45 H           0.6878   -1.6508    7.3338 H       1  UNL1        0.0000
     46 C           1.2540    6.0882    6.3778 C.ar    1  UNL1        0.0000
     47 C          -0.6263    8.8720    1.7533 C.3     1  UNL1        0.0000
     48 H           0.0354    9.5407    2.3032 H       1  UNL1        0.0000
     49 H          -0.7572    9.2626    0.7473 H       1  UNL1        0.0000
     50 H          -0.1439    7.8979    1.6757 H       1  UNL1        0.0000
     51 C          -3.1323    8.9227    1.7415 C.ar    1  UNL1        0.0000
     52 H          -3.0817    9.1872    0.6947 H       1  UNL1        0.0000
     53 C          -0.9487   -1.2432    6.0217 C.ar    1  UNL1        0.0000
     54 H          -1.2481   -2.2795    5.9794 H       1  UNL1        0.0000
     55 C          -0.6099    5.8134   -0.5237 C.ar    1  UNL1        0.0000
     56 H          -1.6007    5.7939   -0.9530 H       1  UNL1        0.0000
     57 C          -0.4166    5.3747    0.7744 C.ar    1  UNL1        0.0000
     58 H          -1.2565    5.0185    1.3528 H       1  UNL1        0.0000
     59 C          -5.2338    2.6271    3.8547 C.ar    1  UNL1        0.0000
     60 H          -6.1676    2.9161    4.3151 H       1  UNL1        0.0000
     61 C           1.8078   10.7177    6.3227 C.ar    1  UNL1        0.0000
     62 H           2.5388   11.3455    6.8100 H       1  UNL1        0.0000
     63 C          -0.0626    9.1752    5.0505 C.ar    1  UNL1        0.0000
     64 C          -0.1446   10.5504    4.9063 C.ar    1  UNL1        0.0000
     65 H          -0.9255   11.0007    4.3121 H       1  UNL1        0.0000
     66 C          -1.5211    1.5467    2.0295 C.3     1  UNL1        0.0000
     67 H          -0.8264    2.3804    2.1351 H       1  UNL1        0.0000
     68 H          -1.6449    1.3303    0.9718 H       1  UNL1        0.0000
     69 H          -1.0693    0.6809    2.5139 H       1  UNL1        0.0000
     70 C           1.7309    6.2999   -0.7034 C.ar    1  UNL1        0.0000
     71 H           2.5716    6.6573   -1.2807 H       1  UNL1        0.0000
     72 C           0.5794    0.4284    6.8900 C.ar    1  UNL1        0.0000
     73 H           1.4352    0.6816    7.4941 H       1  UNL1        0.0000
     74 C          -5.2086    2.3147    2.5029 C.ar    1  UNL1        0.0000
     75 C          -3.3128    7.8753    5.8829 C.3     1  UNL1        0.0000
     76 H          -2.8868    6.8818    6.0352 H       1  UNL1        0.0000
     77 H          -4.3398    7.8724    6.2372 H       1  UNL1        0.0000
     78 H          -2.7353    8.5806    6.4811 H       1  UNL1        0.0000
     79 C          -4.0022    1.9537    1.9213 C.ar    1  UNL1        0.0000
     80 H          -3.9691    1.7161    0.8674 H       1  UNL1        0.0000
     81 C           1.8864    9.3459    6.4814 C.ar    1  UNL1        0.0000
     82 H           2.6684    8.9082    7.0791 H       1  UNL1        0.0000
     83 C           3.5135    7.8997    3.8991 C.ar    1  UNL1        0.0000
     84 H           3.4380    8.9752    3.8217 H       1  UNL1        0.0000
     85 C           0.8097   11.3121    5.5550 C.ar    1  UNL1        0.0000
     86 H           0.7824   12.3875    5.4647 H       1  UNL1        0.0000
     87 C           1.7127    2.5626    1.4413 C.ar    1  UNL1        0.0000
     88 H           1.3818    3.1449    0.5936 H       1  UNL1        0.0000
     89 C           4.7269    5.9384    4.5394 C.ar    1  UNL1        0.0000
     90 H           5.6080    5.4771    4.9619 H       1  UNL1        0.0000
     91 C           2.1329    2.3335    3.7888 C.ar    1  UNL1        0.0000
     92 H           2.1358    2.7495    4.7844 H       1  UNL1        0.0000
     93 C          -4.1068    2.9398    6.0824 C.3     1  UNL1        0.0000
     94 H          -3.7432    2.1094    6.6884 H       1  UNL1        0.0000
     95 H          -5.1140    3.1920    6.4020 H       1  UNL1        0.0000
     96 H          -3.4561    3.7963    6.2634 H       1  UNL1        0.0000
     97 C           2.5419    1.0284    3.5925 C.ar    1  UNL1        0.0000
     98 H           2.8555    0.4318    4.4374 H       1  UNL1        0.0000
     99 C           4.6410    7.3171    4.4546 C.ar    1  UNL1        0.0000
    100 H           5.4498    7.9357    4.8151 H       1  UNL1        0.0000
    101 C          -5.6397    8.9678    1.5835 C.3     1  UNL1        0.0000
    102 H          -6.1873    8.0274    1.5320 H       1  UNL1        0.0000
    103 H          -5.4386    9.3073    0.5706 H       1  UNL1        0.0000
    104 H          -6.2786    9.6986    2.0777 H       1  UNL1        0.0000
    105 C           2.5403    0.4845    2.3188 C.ar    1  UNL1        0.0000
    106 H           2.8553   -0.5369    2.1638 H       1  UNL1        0.0000
    107 C           2.1290    1.2578    1.2467 C.ar    1  UNL1        0.0000
    108 H           2.1258    0.8413    0.2497 H       1  UNL1        0.0000
    109 C          -6.4582    2.3992    1.6805 C.3     1  UNL1        0.0000
    110 H          -7.3329    2.1450    2.2748 H       1  UNL1        0.0000
    111 H          -6.4066    1.7331    0.8224 H       1  UNL1        0.0000
    112 H          -6.5849    3.4175    1.3124 H       1  UNL1        0.0000
@<TRIPOS>BOND
     1    24    23    1
     2    71    70    1
     3    23    70   ar
     4    23    55   ar
     5    56    55    1
     6    70    29   ar
     7    55    57   ar
     8   108   107    1
     9   103   101    1
    10    29    30    1
    11    29    19   ar
    12    88    87    1
    13    52    51    1
    14    49    47    1
    15    57    19   ar
    16    57    58    1
    17   111   109    1
    18    80    79    1
    19    68    66    1
    20   107    87   ar
    21   107   105   ar
    22   112   109    1
    23    19     2    1
    24    87    21   ar
    25   102   101    1
    26   101   104    1
    27   101    42    1
    28    50    47    1
    29   109   110    1
    30   109    74    1
    31    51    42   ar
    32    51    13   ar
    33    47    48    1
    34    47    13    1
    35    79    74   ar
    36    79    18   ar
    37    66    67    1
    38    66    69    1
    39    66    18    1
    40   106   105    1
    41   105    97   ar
    42    42    39   ar
    43    13    10   ar
    44    74    59   ar
    45    18    20   ar
    46    21     2    1
    47    21    91   ar
    48    38    37    1
    49     2    14    1
    50     2     1    1
    51     7     3    1
    52    37    14   ar
    53    37    83   ar
    54    14    33   ar
    55    97    91   ar
    56    97    98    1
    57    39    40    1
    58    39    41   ar
    59     3     1    1
    60    10    41   ar
    61    10     4    1
    62    91    92    1
    63    84    83    1
    64    59    60    1
    65    59    22   ar
    66    83    99   ar
    67    20    22   ar
    68    20     6    1
    69    33    34    1
    70    33    89   ar
    71    65    64    1
    72    41    75    1
    73    99    89   ar
    74    99   100    1
    75     4     9    1
    76     4    63    1
    77    89    90    1
    78     1     9    1
    79     1    16    1
    80     1    11    1
    81    22    93    1
    82    28    27    1
    83     6    16    1
    84     6    17    1
    85    64    63   ar
    86    64    85   ar
    87     9     8    1
    88    63    15   ar
    89    16     5    1
    90    27    17   ar
    91    27    53   ar
    92    17    12   ar
    93    86    85    1
    94    85    61   ar
    95     8    15    1
    96     8    46    1
    97    15    81   ar
    98    75    76    1
    99    75    77    1
   100    75    78    1
   101    11    46   ar
   102    11    43   ar
   103    54    53    1
   104    53    44   ar
   105     5    12    1
   106     5    43    1
   107    93    96    1
   108    93    95    1
   109    93    94    1
   110    12    72   ar
   111    61    81   ar
   112    61    62    1
   113    46    35   ar
   114    81    82    1
   115    43    25   ar
   116    44    72   ar
   117    44    45    1
   118    72    73    1
   119    35    36    1
   120    35    31   ar
   121    25    31   ar
   122    25    26    1
   123    31    32    1
