@<TRIPOS>MOLECULE
CSD_code = XESZIG | q = 0 | S = 0 | Stoichiometry = C17H41CoNP3 | MND = 6
 63 59 0 0 0
SMALL
GASTEIGER

@<TRIPOS>ATOM
      1 CO          8.1192    3.0900    1.6026 Co.oh   1  UNL1        0.0000
      2 P           8.7718    1.2809    2.9076 P.3     2  UNL2        0.0000
      3 P           5.8832    3.1744    1.9147 P.3     3  UNL3        0.0000
      4 P           8.6862    4.7570    2.9179 P.3     4  UNL4        0.0000
      5 N          11.8658    3.7607    0.6278 N.2     1  UNL1        0.0000
      6 C           8.0568    1.9359   -0.0774 C.3     1  UNL1        0.0000
      7 H           8.8602    1.2091   -0.0161 H       1  UNL1        0.0000
      8 H           7.1580    1.5231   -0.5221 H       1  UNL1        0.0000
      9 C           8.3768    3.2750   -0.3524 C.3     1  UNL1        0.0000
     10 H           7.6702    3.9169   -0.8732 H       1  UNL1        0.0000
     11 C           9.5615    3.8301    0.1793 C.3     1  UNL1        0.0000
     12 H           9.6935    4.9043    0.0809 H       1  UNL1        0.0000
     13 C          10.8091    3.1297    0.2980 C.2     1  UNL1        0.0000
     14 H          10.8049    2.0652    0.0359 H       1  UNL1        0.0000
     15 C          13.1861    3.1834    0.6607 C.3     1  UNL1        0.0000
     16 C          14.0424    4.0541   -0.2736 C.3     1  UNL1        0.0000
     17 H          13.6973    3.9498   -1.2999 H       1  UNL1        0.0000
     18 H          15.0880    3.7598   -0.2207 H       1  UNL1        0.0000
     19 H          13.9500    5.0979    0.0137 H       1  UNL1        0.0000
     20 C          13.7125    3.3302    2.0969 C.3     1  UNL1        0.0000
     21 H          13.6448    4.3686    2.4099 H       1  UNL1        0.0000
     22 H          14.7499    3.0089    2.1552 H       1  UNL1        0.0000
     23 H          13.1203    2.7255    2.7806 H       1  UNL1        0.0000
     24 C          13.3101    1.7155    0.2241 C.3     1  UNL1        0.0000
     25 H          12.7591    1.0600    0.8946 H       1  UNL1        0.0000
     26 H          14.3571    1.4219    0.2438 H       1  UNL1        0.0000
     27 H          12.9360    1.5827   -0.7895 H       1  UNL1        0.0000
     28 C          10.4651    0.5712    2.7818 C.3     2  UNL2        0.0000
     29 H          11.1932    1.3518    2.9911 H       2  UNL2        0.0000
     30 H          10.6227    0.2146    1.7664 H       2  UNL2        0.0000
     31 H          10.5995   -0.2552    3.4792 H       2  UNL2        0.0000
     32 C           8.6406    1.3060    4.7494 C.3     2  UNL2        0.0000
     33 H           8.8790    0.3300    5.1700 H       2  UNL2        0.0000
     34 H           7.6277    1.5824    5.0326 H       2  UNL2        0.0000
     35 H           9.3291    2.0473    5.1495 H       2  UNL2        0.0000
     36 C           7.8190   -0.2669    2.6041 C.3     2  UNL2        0.0000
     37 H           8.1781   -1.0771    3.2380 H       2  UNL2        0.0000
     38 H           7.9210   -0.5493    1.5591 H       2  UNL2        0.0000
     39 H           6.7663   -0.0837    2.8070 H       2  UNL2        0.0000
     40 C           4.7852    2.1834    0.8190 C.3     3  UNL3        0.0000
     41 H           5.0501    1.1312    0.8981 H       3  UNL3        0.0000
     42 H           4.9302    2.5032   -0.2107 H       3  UNL3        0.0000
     43 H           3.7403    2.3183    1.0965 H       3  UNL3        0.0000
     44 C           5.0706    4.8112    1.6805 C.3     3  UNL3        0.0000
     45 H           3.9872    4.7264    1.7588 H       3  UNL3        0.0000
     46 H           5.3353    5.1954    0.6974 H       3  UNL3        0.0000
     47 H           5.4367    5.5057    2.4333 H       3  UNL3        0.0000
     48 C           5.1177    2.7147    3.5295 C.3     3  UNL3        0.0000
     49 H           4.0427    2.8897    3.5113 H       3  UNL3        0.0000
     50 H           5.5676    3.3003    4.3269 H       3  UNL3        0.0000
     51 H           5.3091    1.6615    3.7241 H       3  UNL3        0.0000
     52 C           8.5539    6.4762    2.2736 C.3     4  UNL4        0.0000
     53 H           8.8066    7.1927    3.0547 H       4  UNL4        0.0000
     54 H           7.5432    6.6658    1.9191 H       4  UNL4        0.0000
     55 H           9.2431    6.5943    1.4416 H       4  UNL4        0.0000
     56 C          10.4524    4.7626    3.3970 C.3     4  UNL4        0.0000
     57 H          10.7063    5.6764    3.9338 H       4  UNL4        0.0000
     58 H          11.0530    4.6779    2.4904 H       4  UNL4        0.0000
     59 H          10.6538    3.8988    4.0283 H       4  UNL4        0.0000
     60 C           7.9209    5.0463    4.5755 C.3     4  UNL4        0.0000
     61 H           7.9513    4.1300    5.1595 H       4  UNL4        0.0000
     62 H           6.8826    5.3472    4.4506 H       4  UNL4        0.0000
     63 H           8.4594    5.8302    5.1072 H       4  UNL4        0.0000
@<TRIPOS>BOND
     1    17    16    1
     2    10     9    1
     3    27    24    1
     4     8     6    1
     5     9     6    1
     6     9    11    1
     7     9     1    1
     8    16    18    1
     9    16    19    1
    10    16    15    1
    11    42    40    1
    12     6     7    1
    13    14    13    1
    14    12    11    1
    15    11    13    1
    16    24    26    1
    17    24    15    1
    18    24    25    1
    19    13     5    2
    20     5    15    1
    21    15    20    1
    22    46    44    1
    23    40    41    1
    24    40    43    1
    25    40     3    1
    26    55    52    1
    27    38    36    1
    28    44    45    1
    29    44     3    1
    30    44    47    1
    31    30    28    1
    32     3    48    1
    33    54    52    1
    34    20    22    1
    35    20    21    1
    36    20    23    1
    37    52     4    1
    38    52    53    1
    39    58    56    1
    40    36    39    1
    41    36     2    1
    42    36    37    1
    43    28     2    1
    44    28    29    1
    45    28    31    1
    46     2    32    1
    47     4    56    1
    48     4    60    1
    49    56    57    1
    50    56    59    1
    51    49    48    1
    52    48    51    1
    53    48    50    1
    54    62    60    1
    55    60    63    1
    56    60    61    1
    57    32    34    1
    58    32    35    1
    59    32    33    1
