@<TRIPOS>MOLECULE
CSD_code = ZIRTAV | q = 1 | S = 0 | Stoichiometry = C39H51CoO7P3(1+) | MND = 6
 101 104 0 0 0
SMALL
GASTEIGER

@<TRIPOS>ATOM
      1 CO         -0.0612    4.4394    3.7516 Co.oh   1  UNL1        0.0000
      2 P           0.1830    4.9545    5.9197 P.3     2  UNL2        0.0000
      3 P          -2.0004    3.5174    4.3116 P.3     1  UNL1        0.0000
      4 P           0.2306    1.9232    2.1133 P.3     1  UNL1        0.0000
      5 O           1.6491    5.6067    6.1358 O.3     2  UNL2        0.0000
      6 O          -0.8322    6.0743    6.4705 O.3     2  UNL2        0.0000
      7 O           1.0045    7.0378    3.0868 O.3     1  UNL1        0.0000
      8 O          -2.2150    2.5782    5.6127 O.3     1  UNL1        0.0000
      9 O          -2.7372    2.7035    3.1200 O.3     1  UNL1        0.0000
     10 O           1.1202    1.1988    1.0013 O.3     1  UNL1        0.0000
     11 O          -0.6954    0.7617    2.6839 O.3     1  UNL1        0.0000
     12 C           2.0320    6.2453    7.3610 C.3     2  UNL2        0.0000
     13 C           3.1534    5.4799    8.0422 C.3     2  UNL2        0.0000
     14 C          -1.0438    7.3033    5.7761 C.3     2  UNL2        0.0000
     15 C          -1.9336    8.1811    6.6377 C.3     2  UNL2        0.0000
     16 C           0.0058    3.8365    7.3534 C.ar    2  UNL2        0.0000
     17 C           0.9367    2.8103    7.4708 C.ar    2  UNL2        0.0000
     18 C           0.8687    1.9215    8.5296 C.ar    2  UNL2        0.0000
     19 C          -0.1443    2.0460    9.4669 C.ar    2  UNL2        0.0000
     20 C          -1.0788    3.0617    9.3460 C.ar    2  UNL2        0.0000
     21 C          -1.0083    3.9565    8.2919 C.ar    2  UNL2        0.0000
     22 C           0.5573    6.0199    3.3526 C.3     1  UNL1        0.0000
     23 C           1.0205    2.4931    3.5829 C.3     1  UNL1        0.0000
     24 C           1.9071    3.5587    3.6743 C.3     1  UNL1        0.0000
     25 C           2.6913    4.2540    2.6522 C.ar    1  UNL1        0.0000
     26 C           2.5736    4.0544    1.2768 C.ar    1  UNL1        0.0000
     27 C           3.3702    4.7544    0.3908 C.ar    1  UNL1        0.0000
     28 C           4.3033    5.6675    0.8529 C.ar    1  UNL1        0.0000
     29 C           4.4365    5.8755    2.2167 C.ar    1  UNL1        0.0000
     30 C           3.6439    5.1770    3.1037 C.ar    1  UNL1        0.0000
     31 C          -1.6824    1.2680    5.7800 C.3     1  UNL1        0.0000
     32 C          -2.6288    0.4867    6.6777 C.3     1  UNL1        0.0000
     33 C          -4.1073    2.2961    3.2097 C.3     1  UNL1        0.0000
     34 C          -4.9000    2.9037    2.0654 C.3     1  UNL1        0.0000
     35 C          -3.2605    4.7407    4.8099 C.ar    1  UNL1        0.0000
     36 C          -3.8688    4.7598    6.0569 C.ar    1  UNL1        0.0000
     37 C          -4.8223    5.7223    6.3432 C.ar    1  UNL1        0.0000
     38 C          -5.1698    6.6683    5.3925 C.ar    1  UNL1        0.0000
     39 C          -4.5611    6.6536    4.1475 C.ar    1  UNL1        0.0000
     40 C          -3.6064    5.6947    3.8600 C.ar    1  UNL1        0.0000
     41 C           1.9599    0.0762    1.3038 C.3     1  UNL1        0.0000
     42 C           3.3397    0.5271    1.7456 C.3     1  UNL1        0.0000
     43 C          -1.5617    0.0374    1.7922 C.3     1  UNL1        0.0000
     44 C          -2.0691   -1.1969    2.5146 C.3     1  UNL1        0.0000
     45 C          -0.6048    3.2248    1.2246 C.ar    1  UNL1        0.0000
     46 C          -1.0820    3.0173   -0.0646 C.ar    1  UNL1        0.0000
     47 C          -1.7013    4.0589   -0.7245 C.ar    1  UNL1        0.0000
     48 C          -1.8034    5.2883   -0.0921 C.ar    1  UNL1        0.0000
     49 C          -1.3082    5.4775    1.1885 C.ar    1  UNL1        0.0000
     50 C          -0.6987    4.4440    1.9043 C.ar    1  UNL1        0.0000
     51 H           2.3634    3.6746    4.6562 H       1  UNL1        0.0000
     52 H           0.8558    1.8444    4.4355 H       1  UNL1        0.0000
     53 H           2.3711    7.2499    7.0905 H       2  UNL2        0.0000
     54 H           1.1661    6.3306    8.0256 H       2  UNL2        0.0000
     55 H           2.8066    4.5038    8.3720 H       2  UNL2        0.0000
     56 H           3.4992    6.0399    8.9064 H       2  UNL2        0.0000
     57 H           3.9859    5.3458    7.3561 H       2  UNL2        0.0000
     58 H          -1.5205    7.0947    4.8108 H       2  UNL2        0.0000
     59 H          -0.0809    7.7938    5.5948 H       2  UNL2        0.0000
     60 H          -2.8835    7.6848    6.8159 H       2  UNL2        0.0000
     61 H          -2.1153    9.1243    6.1315 H       2  UNL2        0.0000
     62 H          -1.4545    8.3788    7.5930 H       2  UNL2        0.0000
     63 H           1.7255    2.7210    6.7342 H       2  UNL2        0.0000
     64 H           1.6014    1.1336    8.6236 H       2  UNL2        0.0000
     65 H          -0.2023    1.3525   10.2919 H       2  UNL2        0.0000
     66 H          -1.8654    3.1590   10.0796 H       2  UNL2        0.0000
     67 H          -1.7280    4.7535    8.1969 H       2  UNL2        0.0000
     68 H           1.8541    3.3542    0.8867 H       1  UNL1        0.0000
     69 H           3.2595    4.5852   -0.6697 H       1  UNL1        0.0000
     70 H           4.9207    6.2132    0.1564 H       1  UNL1        0.0000
     71 H           5.1597    6.5860    2.5870 H       1  UNL1        0.0000
     72 H           3.7391    5.3562    4.1650 H       1  UNL1        0.0000
     73 H          -0.6973    1.3399    6.2533 H       1  UNL1        0.0000
     74 H          -1.5789    0.7779    4.8085 H       1  UNL1        0.0000
     75 H          -2.2422   -0.5159    6.8367 H       1  UNL1        0.0000
     76 H          -3.6150    0.4209    6.2245 H       1  UNL1        0.0000
     77 H          -2.7207    0.9852    7.6390 H       1  UNL1        0.0000
     78 H          -4.1293    1.2029    3.1513 H       1  UNL1        0.0000
     79 H          -4.5279    2.6024    4.1731 H       1  UNL1        0.0000
     80 H          -5.9096    2.5026    2.0649 H       1  UNL1        0.0000
     81 H          -4.4241    2.6728    1.1152 H       1  UNL1        0.0000
     82 H          -4.9478    3.9839    2.1732 H       1  UNL1        0.0000
     83 H          -3.6017    4.0197    6.7941 H       1  UNL1        0.0000
     84 H          -5.2976    5.7335    7.3131 H       1  UNL1        0.0000
     85 H          -5.9134    7.4165    5.6210 H       1  UNL1        0.0000
     86 H          -4.8308    7.3885    3.4039 H       1  UNL1        0.0000
     87 H          -3.1229    5.6675    2.8936 H       1  UNL1        0.0000
     88 H           2.0196   -0.4941    0.3731 H       1  UNL1        0.0000
     89 H           1.4896   -0.5425    2.0759 H       1  UNL1        0.0000
     90 H           3.9772   -0.3411    1.8870 H       1  UNL1        0.0000
     91 H           3.2785    1.0804    2.6800 H       1  UNL1        0.0000
     92 H           3.7825    1.1714    0.9909 H       1  UNL1        0.0000
     93 H          -1.0050   -0.2479    0.8929 H       1  UNL1        0.0000
     94 H          -2.3865    0.6936    1.5025 H       1  UNL1        0.0000
     95 H          -2.7149   -1.7641    1.8504 H       1  UNL1        0.0000
     96 H          -2.6336   -0.9170    3.4003 H       1  UNL1        0.0000
     97 H          -1.2384   -1.8283    2.8197 H       1  UNL1        0.0000
     98 H          -0.9562    2.0531   -0.5372 H       1  UNL1        0.0000
     99 H          -2.0892    3.9216   -1.7220 H       1  UNL1        0.0000
    100 H          -2.2696    6.1158   -0.6065 H       1  UNL1        0.0000
    101 H          -1.3922    6.4653    1.6214 H       1  UNL1        0.0000
@<TRIPOS>BOND
     1    99    47    1
     2    47    48   ar
     3    47    46   ar
     4    69    27    1
     5   100    48    1
     6    98    46    1
     7    48    49   ar
     8    46    45   ar
     9    70    28    1
    10    88    41    1
    11    27    28   ar
    12    27    26   ar
    13    28    29   ar
    14    68    26    1
    15    93    43    1
    16    92    42    1
    17    10    41    1
    18    10     4    1
    19    81    34    1
    20    49   101    1
    21    49    50   ar
    22    45    50   ar
    23    45     4    1
    24    26    25   ar
    25    41    42    1
    26    41    89    1
    27    94    43    1
    28    42    90    1
    29    42    91    1
    30    43    44    1
    31    43    11    1
    32    95    44    1
    33    50     1    1
    34    80    34    1
    35    34    82    1
    36    34    33    1
    37     4    11    1
    38     4    23    1
    39    29    71    1
    40    29    30   ar
    41    44    97    1
    42    44    96    1
    43    25    30   ar
    44    25    24    1
    45    87    40    1
    46     7    22    1
    47    30    72    1
    48     9    33    1
    49     9     3    1
    50    78    33    1
    51    33    79    1
    52    22     1    1
    53    86    39    1
    54    23    24    1
    55    23    52    1
    56    24     1    1
    57    24    51    1
    58     1     3    1
    59    40    39   ar
    60    40    35   ar
    61    39    38   ar
    62     3    35    1
    63     3     8    1
    64    74    31    1
    65    35    36   ar
    66    58    14    1
    67    38    85    1
    68    38    37   ar
    69    59    14    1
    70     8    31    1
    71    14     6    1
    72    14    15    1
    73    31    73    1
    74    31    32    1
    75     2     5    1
    76     2     6    1
    77     2    16    1
    78    36    37   ar
    79    36    83    1
    80    61    15    1
    81     5    12    1
    82    76    32    1
    83    37    84    1
    84    15    60    1
    85    15    62    1
    86    32    75    1
    87    32    77    1
    88    63    17    1
    89    53    12    1
    90    16    17   ar
    91    16    21   ar
    92    57    13    1
    93    12    54    1
    94    12    13    1
    95    17    18   ar
    96    13    55    1
    97    13    56    1
    98    67    21    1
    99    21    20   ar
   100    18    64    1
   101    18    19   ar
   102    20    19   ar
   103    20    66    1
   104    19    65    1
