@<TRIPOS>MOLECULE
CSD_code = ZUWGUV | q = 0 | S = 0 | Stoichiometry = C52H61BCoN2O2P | MND = 6
 120 124 0 0 0
SMALL
GASTEIGER

@<TRIPOS>ATOM
      1 CO          7.1551   -0.6268    4.7431 Co.oh   1  UNL1        0.0000
      2 P           5.4098    0.8314    5.5712 P.3     2  UNL2        0.0000
      3 C           5.0687    2.4374    4.7576 C.ar    2  UNL2        0.0000
      4 C           4.2662    3.3972    5.3693 C.ar    2  UNL2        0.0000
      5 C           4.0519    4.6150    4.7533 C.ar    2  UNL2        0.0000
      6 C           4.6386    4.8900    3.5270 C.ar    2  UNL2        0.0000
      7 C           5.4428    3.9424    2.9186 C.ar    2  UNL2        0.0000
      8 C           5.6586    2.7209    3.5335 C.ar    2  UNL2        0.0000
      9 H           6.2948    1.9809    3.0696 H       2  UNL2        0.0000
     10 H           5.9061    4.1554    1.9661 H       2  UNL2        0.0000
     11 H           4.4708    5.8449    3.0507 H       2  UNL2        0.0000
     12 H           3.4284    5.3566    5.2317 H       2  UNL2        0.0000
     13 H           3.8130    3.1871    6.3281 H       2  UNL2        0.0000
     14 C           5.9060    1.5276    7.1932 C.ar    2  UNL2        0.0000
     15 C           5.0527    1.6791    8.2799 C.ar    2  UNL2        0.0000
     16 C           5.5128    2.2588    9.4496 C.ar    2  UNL2        0.0000
     17 C           6.8209    2.7008    9.5453 C.ar    2  UNL2        0.0000
     18 C           7.6738    2.5624    8.4623 C.ar    2  UNL2        0.0000
     19 C           7.2188    1.9796    7.2953 C.ar    2  UNL2        0.0000
     20 H           7.8821    1.8605    6.4481 H       2  UNL2        0.0000
     21 H           8.6955    2.9066    8.5297 H       2  UNL2        0.0000
     22 H           7.1748    3.1511   10.4611 H       2  UNL2        0.0000
     23 H           4.8425    2.3667   10.2904 H       2  UNL2        0.0000
     24 H           4.0278    1.3402    8.2238 H       2  UNL2        0.0000
     25 C           3.7254    0.2407    5.9395 C.ar    2  UNL2        0.0000
     26 C           2.6049    0.6398    5.2196 C.ar    2  UNL2        0.0000
     27 C           1.3730    0.0640    5.4774 C.ar    2  UNL2        0.0000
     28 C           1.2495   -0.9221    6.4417 C.ar    2  UNL2        0.0000
     29 C           2.3675   -1.3431    7.1467 C.ar    2  UNL2        0.0000
     30 C           3.5989   -0.7726    6.8903 C.ar    2  UNL2        0.0000
     31 H           4.4807   -1.1037    7.4254 H       2  UNL2        0.0000
     32 H           2.2765   -2.1207    7.8916 H       2  UNL2        0.0000
     33 H           0.2862   -1.3687    6.6394 H       2  UNL2        0.0000
     34 H           0.5051    0.3851    4.9196 H       2  UNL2        0.0000
     35 H           2.6967    1.4021    4.4587 H       2  UNL2        0.0000
     36 C           7.5790   -1.1543    6.3583 C.3     1  UNL1        0.0000
     37 O           7.8065   -1.5562    7.4124 O.3     1  UNL1        0.0000
     38 C           8.4070    0.4998    4.2165 C.3     1  UNL1        0.0000
     39 O           9.1905    1.2040    3.7523 O.3     1  UNL1        0.0000
     40 C           6.8223   -0.8672    2.7813 C.3     1  UNL1        0.0000
     41 C           6.0598   -1.8027    3.5361 C.3     1  UNL1        0.0000
     42 C           6.7303   -2.6580    4.4325 C.3     1  UNL1        0.0000
     43 C           8.1036   -3.2509    4.1369 C.3     1  UNL1        0.0000
     44 B           8.1050   -4.5273    3.1791 B       1  UNL1        0.0000
     45 N           8.2660   -4.5309    1.7665 N.ar    1  UNL1        0.0000
     46 C           8.4117   -3.4722    0.8375 C.ar    1  UNL1        0.0000
     47 C           7.3485   -3.1332   -0.0074 C.ar    1  UNL1        0.0000
     48 C           6.0262   -3.8606    0.0737 C.3     1  UNL1        0.0000
     49 C           4.8412   -2.8963   -0.0142 C.3     1  UNL1        0.0000
     50 H           3.9267   -3.4013    0.2913 H       1  UNL1        0.0000
     51 H           4.9999   -2.0373    0.6313 H       1  UNL1        0.0000
     52 H           4.6987   -2.5426   -1.0325 H       1  UNL1        0.0000
     53 C           5.9225   -4.9059   -1.0413 C.3     1  UNL1        0.0000
     54 H           4.9577   -5.4072   -0.9966 H       1  UNL1        0.0000
     55 H           6.7021   -5.6567   -0.9469 H       1  UNL1        0.0000
     56 H           6.0208   -4.4299   -2.0150 H       1  UNL1        0.0000
     57 H           5.9800   -4.3745    1.0400 H       1  UNL1        0.0000
     58 C           7.5328   -2.1191   -0.9370 C.ar    1  UNL1        0.0000
     59 C           8.7337   -1.4421   -1.0208 C.ar    1  UNL1        0.0000
     60 C           9.7743   -1.7782   -0.1774 C.ar    1  UNL1        0.0000
     61 C           9.6351   -2.7946    0.7575 C.ar    1  UNL1        0.0000
     62 C          10.8095   -3.1852    1.6251 C.3     1  UNL1        0.0000
     63 C          11.8534   -3.9156    0.7752 C.3     1  UNL1        0.0000
     64 H          12.6973   -4.2163    1.3924 H       1  UNL1        0.0000
     65 H          11.4195   -4.8067    0.3262 H       1  UNL1        0.0000
     66 H          12.2195   -3.2726   -0.0222 H       1  UNL1        0.0000
     67 C          11.4329   -1.9787    2.3288 C.3     1  UNL1        0.0000
     68 H          12.1742   -2.3140    3.0511 H       1  UNL1        0.0000
     69 H          11.9273   -1.3187    1.6207 H       1  UNL1        0.0000
     70 H          10.6757   -1.4049    2.8589 H       1  UNL1        0.0000
     71 H          10.4600   -3.8792    2.3939 H       1  UNL1        0.0000
     72 H          10.7113   -1.2486   -0.2551 H       1  UNL1        0.0000
     73 H           8.8604   -0.6536   -1.7482 H       1  UNL1        0.0000
     74 H           6.7292   -1.8533   -1.6060 H       1  UNL1        0.0000
     75 C           8.3819   -5.8467    1.3487 C.ar    1  UNL1        0.0000
     76 C           8.2964   -6.6602    2.4153 C.ar    1  UNL1        0.0000
     77 N           8.1238   -5.8985    3.5600 N.ar    1  UNL1        0.0000
     78 C           8.1048   -6.5177    4.8333 C.ar    1  UNL1        0.0000
     79 C           6.9733   -7.2280    5.2524 C.ar    1  UNL1        0.0000
     80 C           5.7515   -7.3568    4.3708 C.3     1  UNL1        0.0000
     81 C           5.6885   -8.7611    3.7617 C.3     1  UNL1        0.0000
     82 H           4.8096   -8.8563    3.1274 H       1  UNL1        0.0000
     83 H           5.6322   -9.5124    4.5466 H       1  UNL1        0.0000
     84 H           6.5696   -8.9648    3.1588 H       1  UNL1        0.0000
     85 C           4.4569   -7.0728    5.1379 C.3     1  UNL1        0.0000
     86 H           3.6293   -6.9616    4.4398 H       1  UNL1        0.0000
     87 H           4.2156   -7.8903    5.8127 H       1  UNL1        0.0000
     88 H           4.5425   -6.1607    5.7231 H       1  UNL1        0.0000
     89 H           5.8355   -6.6307    3.5554 H       1  UNL1        0.0000
     90 C           6.9966   -7.8495    6.4935 C.ar    1  UNL1        0.0000
     91 C           8.1083   -7.7682    7.3084 C.ar    1  UNL1        0.0000
     92 C           9.2230   -7.0724    6.8831 C.ar    1  UNL1        0.0000
     93 C           9.2434   -6.4426    5.6468 C.ar    1  UNL1        0.0000
     94 C          10.5063   -5.7600    5.1726 C.3     1  UNL1        0.0000
     95 C          11.5434   -6.8210    4.7920 C.3     1  UNL1        0.0000
     96 H          12.4510   -6.3456    4.4261 H       1  UNL1        0.0000
     97 H          11.7977   -7.4373    5.6517 H       1  UNL1        0.0000
     98 H          11.1530   -7.4678    4.0090 H       1  UNL1        0.0000
     99 C          11.0759   -4.7967    6.2148 C.3     1  UNL1        0.0000
    100 H          11.8949   -4.2264    5.7816 H       1  UNL1        0.0000
    101 H          11.4586   -5.3300    7.0813 H       1  UNL1        0.0000
    102 H          10.3139   -4.0974    6.5516 H       1  UNL1        0.0000
    103 H          10.2754   -5.1821    4.2744 H       1  UNL1        0.0000
    104 H          10.0943   -7.0305    7.5184 H       1  UNL1        0.0000
    105 H           8.1102   -8.2569    8.2718 H       1  UNL1        0.0000
    106 H           6.1362   -8.4086    6.8276 H       1  UNL1        0.0000
    107 H           8.3708   -7.7291    2.4587 H       1  UNL1        0.0000
    108 H           8.5457   -6.0960    0.3185 H       1  UNL1        0.0000
    109 H           8.5493   -3.5393    5.0910 H       1  UNL1        0.0000
    110 H           8.7627   -2.4998    3.7003 H       1  UNL1        0.0000
    111 C           5.8979   -3.5956    5.2810 C.3     1  UNL1        0.0000
    112 H           6.5247   -4.1257    5.9956 H       1  UNL1        0.0000
    113 H           5.1160   -3.0768    5.8315 H       1  UNL1        0.0000
    114 H           5.4240   -4.3352    4.6344 H       1  UNL1        0.0000
    115 C           4.5561   -1.7766    3.4551 C.3     1  UNL1        0.0000
    116 H           4.0720   -1.8498    4.4256 H       1  UNL1        0.0000
    117 H           4.2061   -0.8677    2.9667 H       1  UNL1        0.0000
    118 H           4.2312   -2.6346    2.8635 H       1  UNL1        0.0000
    119 H           6.2516   -0.1978    2.1419 H       1  UNL1        0.0000
    120 H           7.7246   -1.2054    2.2805 H       1  UNL1        0.0000
@<TRIPOS>BOND
     1    56    53    1
     2    73    59    1
     3    74    58    1
     4    53    54    1
     5    53    55    1
     6    53    48    1
     7    52    49    1
     8    59    58   ar
     9    59    60   ar
    10    58    47   ar
    11    72    60    1
    12    60    61   ar
    13    66    63    1
    14    49    48    1
    15    49    50    1
    16    49    51    1
    17    47    48    1
    18    47    46   ar
    19    48    57    1
    20   108    75    1
    21    65    63    1
    22    61    46   ar
    23    61    62    1
    24    63    64    1
    25    63    62    1
    26    46    45    1
    27    75    45   ar
    28    75    76   ar
    29    69    67    1
    30    62    67    1
    31    62    71    1
    32    45    44   ar
    33    10     7    1
    34   119    40    1
    35   120    40    1
    36    67    70    1
    37    67    68    1
    38    76   107    1
    39    76    77   ar
    40    40    41    1
    41    40     1    1
    42   118   115    1
    43     7     6   ar
    44     7     8   ar
    45   117   115    1
    46    11     6    1
    47     9     8    1
    48    82    81    1
    49    84    81    1
    50    44    77   ar
    51    44    43    1
    52   115    41    1
    53   115   116    1
    54     6     5   ar
    55     8     3   ar
    56    41    42    1
    57    89    80    1
    58    77    78    1
    59   110    43    1
    60    39    38    1
    61    81    80    1
    62    81    83    1
    63    98    95    1
    64    43    42    1
    65    43   109    1
    66    38     1    1
    67   103    94    1
    68    80    85    1
    69    80    79    1
    70    96    95    1
    71    42   111    1
    72    86    85    1
    73    35    26    1
    74   114   111    1
    75     1    36    1
    76     5    12    1
    77     5     4   ar
    78     3     4   ar
    79     3     2    1
    80    95    94    1
    81    95    97    1
    82    78    79   ar
    83    78    93   ar
    84    34    27    1
    85    85    88    1
    86    85    87    1
    87    94    93    1
    88    94    99    1
    89    26    27   ar
    90    26    25   ar
    91    79    90   ar
    92   111   113    1
    93   111   112    1
    94     4    13    1
    95    27    28   ar
    96     2    25    1
    97     2    14    1
    98    93    92   ar
    99   100    99    1
   100    25    30   ar
   101    99   102    1
   102    99   101    1
   103    36    37    1
   104    28    33    1
   105    28    29   ar
   106    20    19    1
   107    90   106    1
   108    90    91   ar
   109    92    91   ar
   110    92   104    1
   111    30    29   ar
   112    30    31    1
   113    29    32    1
   114    14    19   ar
   115    14    15   ar
   116    19    18   ar
   117    91   105    1
   118    24    15    1
   119    15    16   ar
   120    18    21    1
   121    18    17   ar
   122    16    17   ar
   123    16    23    1
   124    17    22    1
