@<TRIPOS>MOLECULE
CSD_code = TOSZEG | q = 1 | S = 0 | Stoichiometry = C42H38CoO2P2S(1+) | MND = 5
 86 94 0 0 0
SMALL
GASTEIGER

@<TRIPOS>ATOM
      1 CO          4.7602    6.3067   12.6836 Co.oh   1  UNL1        0.0000
      2 S           6.7368    5.0479   12.6935 S.3     1  UNL1        0.0000
      3 P           3.8427    4.3095   12.7753 P.3     1  UNL1        0.0000
      4 P           4.4362    6.4453   14.8572 P.3     1  UNL1        0.0000
      5 O           3.4067    7.2014   11.7808 O.3     1  UNL1        0.0000
      6 O           5.6989    7.8575   12.4914 O.3     1  UNL1        0.0000
      7 C           4.7887    3.1822   13.9109 C.3     1  UNL1        0.0000
      8 H           4.0727    2.4907   14.3635 H       1  UNL1        0.0000
      9 H           5.4499    2.5917   13.2676 H       1  UNL1        0.0000
     10 C           4.8239    4.8950   15.7883 C.3     1  UNL1        0.0000
     11 H           5.3558    5.1634   16.7051 H       1  UNL1        0.0000
     12 H           3.8616    4.4649   16.0792 H       1  UNL1        0.0000
     13 C           6.9326    4.4389   14.4628 C.3     1  UNL1        0.0000
     14 H           7.7053    3.6745   14.3879 H       1  UNL1        0.0000
     15 H           7.3013    5.2616   15.0710 H       1  UNL1        0.0000
     16 C           5.6357    3.8404   15.0202 C.3     1  UNL1        0.0000
     17 C           6.0241    2.7379   16.0203 C.3     1  UNL1        0.0000
     18 H           5.1463    2.3594   16.5392 H       1  UNL1        0.0000
     19 H           6.7193    3.1212   16.7641 H       1  UNL1        0.0000
     20 H           6.5009    1.9064   15.5069 H       1  UNL1        0.0000
     21 C           3.4183    2.1400   11.0744 C.ar    1  UNL1        0.0000
     22 H           2.9155    1.6829   11.9158 H       1  UNL1        0.0000
     23 C           3.5209    1.4704    9.8700 C.ar    1  UNL1        0.0000
     24 H           3.1035    0.4801    9.7691 H       1  UNL1        0.0000
     25 C           4.1549    2.0700    8.7917 C.ar    1  UNL1        0.0000
     26 H           4.2301    1.5428    7.8531 H       1  UNL1        0.0000
     27 C           4.6856    3.3438    8.9132 C.ar    1  UNL1        0.0000
     28 H           5.1732    3.8104    8.0710 H       1  UNL1        0.0000
     29 C           4.5876    4.0206   10.1162 C.ar    1  UNL1        0.0000
     30 H           4.9935    5.0221   10.2192 H       1  UNL1        0.0000
     31 C           3.9586    3.4179   11.1993 C.ar    1  UNL1        0.0000
     32 C           1.2065    4.5720   12.1985 C.ar    1  UNL1        0.0000
     33 H           1.6116    4.9504   11.2692 H       1  UNL1        0.0000
     34 C          -0.1569    4.5408   12.4131 C.ar    1  UNL1        0.0000
     35 H          -0.8322    4.8831   11.6439 H       1  UNL1        0.0000
     36 C          -0.6568    4.0714   13.6185 C.ar    1  UNL1        0.0000
     37 H          -1.7218    4.0480   13.7901 H       1  UNL1        0.0000
     38 C           0.2106    3.6311   14.6032 C.ar    1  UNL1        0.0000
     39 H          -0.1775    3.2650   15.5417 H       1  UNL1        0.0000
     40 C           1.5783    3.6573   14.3923 C.ar    1  UNL1        0.0000
     41 H           2.2348    3.3052   15.1749 H       1  UNL1        0.0000
     42 C           2.0847    4.1212   13.1845 C.ar    1  UNL1        0.0000
     43 C           2.4336    6.7408   16.7388 C.ar    1  UNL1        0.0000
     44 H           3.2257    6.5741   17.4561 H       1  UNL1        0.0000
     45 C           1.1388    6.9493   17.1729 C.ar    1  UNL1        0.0000
     46 H           0.9193    6.9348   18.2297 H       1  UNL1        0.0000
     47 C           0.1256    7.1808   16.2549 C.ar    1  UNL1        0.0000
     48 H          -0.8847    7.3404   16.5987 H       1  UNL1        0.0000
     49 C           0.4117    7.2173   14.9013 C.ar    1  UNL1        0.0000
     50 H          -0.3730    7.4081   14.1857 H       1  UNL1        0.0000
     51 C           1.7065    7.0080   14.4586 C.ar    1  UNL1        0.0000
     52 H           1.9299    7.0326   13.4025 H       1  UNL1        0.0000
     53 C           2.7188    6.7558   15.3743 C.ar    1  UNL1        0.0000
     54 C           4.8148    9.0872   15.3560 C.ar    1  UNL1        0.0000
     55 H           3.9684    9.1776   14.6865 H       1  UNL1        0.0000
     56 C           5.4211   10.2147   15.8724 C.ar    1  UNL1        0.0000
     57 H           5.0528   11.1929   15.6044 H       1  UNL1        0.0000
     58 C           6.5018   10.0871   16.7325 C.ar    1  UNL1        0.0000
     59 H           6.9770   10.9673   17.1369 H       1  UNL1        0.0000
     60 C           6.9717    8.8299   17.0723 C.ar    1  UNL1        0.0000
     61 H           7.8105    8.7272   17.7443 H       1  UNL1        0.0000
     62 C           6.3751    7.6951   16.5484 C.ar    1  UNL1        0.0000
     63 H           6.7701    6.7253   16.8183 H       1  UNL1        0.0000
     64 C           5.2857    7.8173   15.6931 C.ar    1  UNL1        0.0000
     65 C           7.6846    6.2025   12.0564 C.3     1  UNL1        0.0000
     66 C           8.5778    7.6646   13.8337 C.ar    1  UNL1        0.0000
     67 H           7.6374    7.5990   14.3599 H       1  UNL1        0.0000
     68 C           9.5726    8.5040   14.2885 C.ar    1  UNL1        0.0000
     69 H           9.4212    9.0617   15.2014 H       1  UNL1        0.0000
     70 C          10.7628    8.6215   13.5867 C.ar    1  UNL1        0.0000
     71 H          11.5476    9.2633   13.9564 H       1  UNL1        0.0000
     72 C          10.9373    7.9229   12.3995 C.ar    1  UNL1        0.0000
     73 H          11.8606    8.0195   11.8490 H       1  UNL1        0.0000
     74 C           9.9267    7.1273   11.9040 C.ar    1  UNL1        0.0000
     75 H          10.0510    6.5898   10.9766 H       1  UNL1        0.0000
     76 C           8.7357    6.9616   12.6303 C.ar    1  UNL1        0.0000
     77 C           3.6642    8.4694   11.6448 C.ar    1  UNL1        0.0000
     78 C           2.7502    9.4553   11.2387 C.ar    1  UNL1        0.0000
     79 H           1.7401    9.1768   10.9817 H       1  UNL1        0.0000
     80 C           3.1994   10.7471   11.1196 C.ar    1  UNL1        0.0000
     81 H           2.5249   11.5146   10.7723 H       1  UNL1        0.0000
     82 C           4.5241   11.0986   11.4311 C.ar    1  UNL1        0.0000
     83 H           4.8293   12.1279   11.3209 H       1  UNL1        0.0000
     84 C           5.4307   10.1678   11.8735 C.ar    1  UNL1        0.0000
     85 H           6.4497   10.4263   12.1150 H       1  UNL1        0.0000
     86 C           5.0044    8.8359   11.9981 C.ar    1  UNL1        0.0000
@<TRIPOS>BOND
     1    26    25    1
     2    28    27    1
     3    25    27   ar
     4    25    23   ar
     5    27    29   ar
     6    24    23    1
     7    23    21   ar
     8    29    30    1
     9    29    31   ar
    10    81    80    1
    11    75    74    1
    12    79    78    1
    13    21    31   ar
    14    21    22    1
    15    80    78   ar
    16    80    82   ar
    17    31     3    1
    18    78    77   ar
    19    33    32    1
    20    83    82    1
    21    82    84   ar
    22    35    34    1
    23    77     5    1
    24    77    86   ar
    25     5     1    1
    26    73    72    1
    27    84    86   ar
    28    84    85    1
    29    74    72   ar
    30    74    76   ar
    31    86     6    1
    32    65    76    1
    33    65     2    1
    34    32    34   ar
    35    32    42   ar
    36    72    70   ar
    37    34    36   ar
    38     6     1    1
    39    76    66   ar
    40     1     2    1
    41     1     3    1
    42     1     4    1
    43     2    13    1
    44     3    42    1
    45     3     7    1
    46    42    40   ar
    47     9     7    1
    48    52    51    1
    49    70    71    1
    50    70    68   ar
    51    36    37    1
    52    36    38   ar
    53    66    68   ar
    54    66    67    1
    55     7     8    1
    56     7    16    1
    57    50    49    1
    58    68    69    1
    59    14    13    1
    60    40    38   ar
    61    40    41    1
    62    51    49   ar
    63    51    53   ar
    64    13    16    1
    65    13    15    1
    66    38    39    1
    67    55    54    1
    68     4    53    1
    69     4    64    1
    70     4    10    1
    71    49    47   ar
    72    16    10    1
    73    16    17    1
    74    54    64   ar
    75    54    56   ar
    76    53    43   ar
    77    20    17    1
    78    57    56    1
    79    64    62   ar
    80    10    12    1
    81    10    11    1
    82    56    58   ar
    83    17    18    1
    84    17    19    1
    85    47    48    1
    86    47    45   ar
    87    62    63    1
    88    62    60   ar
    89    58    60   ar
    90    58    59    1
    91    43    45   ar
    92    43    44    1
    93    60    61    1
    94    45    46    1
