@<TRIPOS>MOLECULE
CSD_code = HOSKUX | q = 1 | S = 0 | Stoichiometry = C17H22CoN4O2S(1+) | MND = 6
 47 52 0 0 0
SMALL
GASTEIGER

@<TRIPOS>ATOM
      1 CO          1.3057    6.4736    8.0907 Co.oh   1  UNL1        0.0000
      2 S           3.2909    6.8834    7.1176 S.3     1  UNL1        0.0000
      3 O           1.7327    4.6942    8.3469 O.3     1  UNL1        0.0000
      4 O           2.0793    2.7869    7.2709 O.2     1  UNL1        0.0000
      5 N           0.8136    5.8469    6.2668 N.4     1  UNL1        0.0000
      6 N           0.7508    8.3964    7.9067 N.4     1  UNL1        0.0000
      7 N          -0.5448    6.2561    8.8984 N.pl3   1  UNL1        0.0000
      8 N           1.9173    6.9748    9.7818 N.pl3   1  UNL1        0.0000
      9 C           1.9204    3.9798    7.2918 C.2     1  UNL1        0.0000
     10 C           1.8808    4.8488    6.0062 C.3     1  UNL1        0.0000
     11 C           3.2272    5.5707    5.8255 C.3     1  UNL1        0.0000
     12 C           3.3104    6.2401    4.4542 C.3     1  UNL1        0.0000
     13 C           4.3973    4.6143    6.0182 C.3     1  UNL1        0.0000
     14 C          -0.7004    8.5322    8.1254 C.3     1  UNL1        0.0000
     15 C          -1.2463    7.3909    8.9434 C.3     1  UNL1        0.0000
     16 C          -2.4332    7.4874    9.6546 C.2     1  UNL1        0.0000
     17 C          -2.9021    6.3715   10.3303 C.2     1  UNL1        0.0000
     18 C          -2.1672    5.1966   10.2736 C.2     1  UNL1        0.0000
     19 C          -0.9880    5.1853    9.5500 C.2     1  UNL1        0.0000
     20 C           1.5687    9.1563    8.8681 C.3     1  UNL1        0.0000
     21 C           1.9200    8.2878   10.0381 C.3     1  UNL1        0.0000
     22 C           2.2902    8.7926   11.2743 C.2     1  UNL1        0.0000
     23 C           2.6866    7.9132   12.2690 C.2     1  UNL1        0.0000
     24 C           2.6968    6.5558   11.9874 C.2     1  UNL1        0.0000
     25 C           2.3004    6.1263   10.7339 C.2     1  UNL1        0.0000
     26 H           1.6597    4.2275    5.1297 H       1  UNL1        0.0000
     27 H           4.2389    6.8001    4.3786 H       1  UNL1        0.0000
     28 H           3.2999    5.4862    3.6697 H       1  UNL1        0.0000
     29 H           2.4908    6.9376    4.2847 H       1  UNL1        0.0000
     30 H           5.3339    5.1336    5.8298 H       1  UNL1        0.0000
     31 H           4.4189    4.2240    7.0329 H       1  UNL1        0.0000
     32 H           4.3142    3.7741    5.3318 H       1  UNL1        0.0000
     33 H          -0.0879    5.3669    6.2179 H       1  UNL1        0.0000
     34 H           0.8264    6.5346    5.5099 H       1  UNL1        0.0000
     35 H           0.9713    8.7697    6.9848 H       1  UNL1        0.0000
     36 H          -1.2105    8.5148    7.1557 H       1  UNL1        0.0000
     37 H          -0.9420    9.4874    8.6049 H       1  UNL1        0.0000
     38 H          -2.9799    8.4168    9.6726 H       1  UNL1        0.0000
     39 H          -3.8233    6.4199   10.8893 H       1  UNL1        0.0000
     40 H          -2.4985    4.3055   10.7805 H       1  UNL1        0.0000
     41 H          -0.3709    4.3004    9.4782 H       1  UNL1        0.0000
     42 H           1.0722   10.0789    9.1877 H       1  UNL1        0.0000
     43 H           2.5102    9.4226    8.3749 H       1  UNL1        0.0000
     44 H           2.2805    9.8575   11.4440 H       1  UNL1        0.0000
     45 H           2.9884    8.2810   13.2369 H       1  UNL1        0.0000
     46 H           3.0110    5.8355   12.7245 H       1  UNL1        0.0000
     47 H           2.2999    5.0785   10.4693 H       1  UNL1        0.0000
@<TRIPOS>BOND
     1    28    12    1
     2    29    12    1
     3    27    12    1
     4    12    11    1
     5    26    10    1
     6    32    13    1
     7    34     5    1
     8    11    10    1
     9    11    13    1
    10    11     2    1
    11    30    13    1
    12    10     5    1
    13    10     9    1
    14    13    31    1
    15    33     5    1
    16     5     1    1
    17    35     6    1
    18     2     1    1
    19    36    14    1
    20     4     9    2
    21     9     3    1
    22     6     1    1
    23     6    14    1
    24     6    20    1
    25     1     3    1
    26     1     7    1
    27     1     8    1
    28    14    37    1
    29    14    15    1
    30    43    20    1
    31    20    42    1
    32    20    21    1
    33     7    15    1
    34     7    19    1
    35    15    16    1
    36    41    19    1
    37    19    18    2
    38    16    38    1
    39    16    17    2
    40     8    21    1
    41     8    25    1
    42    21    22    1
    43    18    17    1
    44    18    40    1
    45    17    39    1
    46    47    25    1
    47    25    24    2
    48    22    44    1
    49    22    23    2
    50    24    23    1
    51    24    46    1
    52    23    45    1
