@<TRIPOS>MOLECULE
CSD_code = HOSLAE | q = 1 | S = 0 | Stoichiometry = C17H22CoN4O2S(1+) | MND = 6
 47 52 0 0 0
SMALL
GASTEIGER

@<TRIPOS>ATOM
      1 CO          3.0070   13.8443    3.0784 Co.oh   1  UNL1        0.0000
      2 S           0.9931   14.1190    4.0394 S.3     1  UNL1        0.0000
      3 O           2.6887   12.0472    2.7924 O.3     1  UNL1        0.0000
      4 O           2.4480   10.1065    3.8371 O.2     1  UNL1        0.0000
      5 N           3.5228   13.2199    4.8968 N.4     1  UNL1        0.0000
      6 N           3.4450   15.7934    3.2966 N.4     1  UNL1        0.0000
      7 N           4.8735   13.7499    2.2842 N.pl3   1  UNL1        0.0000
      8 N           2.3788   14.3345    1.3904 N.pl3   1  UNL1        0.0000
      9 C           2.5356   11.3069    3.8352 C.2     1  UNL1        0.0000
     10 C           2.5145   12.1568    5.1341 C.3     1  UNL1        0.0000
     11 C           1.1270   12.7957    5.3154 C.3     1  UNL1        0.0000
     12 C           0.9968   13.4416    6.6942 C.3     1  UNL1        0.0000
     13 C           0.0164   11.7746    5.1036 C.3     1  UNL1        0.0000
     14 C           4.8875   16.0184    3.0950 C.3     1  UNL1        0.0000
     15 C           5.5082   14.9242    2.2657 C.3     1  UNL1        0.0000
     16 C           6.6954   15.1013    1.5709 C.2     1  UNL1        0.0000
     17 C           7.2362   14.0258    0.8833 C.2     1  UNL1        0.0000
     18 C           6.5704   12.8094    0.9123 C.2     1  UNL1        0.0000
     19 C           5.3858   12.7177    1.6211 C.2     1  UNL1        0.0000
     20 C           2.5921   16.5188    2.3389 C.3     1  UNL1        0.0000
     21 C           2.3009   15.6489    1.1535 C.3     1  UNL1        0.0000
     22 C           1.9101   16.1498   -0.0779 C.2     1  UNL1        0.0000
     23 C           1.5719   15.2640   -1.0882 C.2     1  UNL1        0.0000
     24 C           1.6387   13.9042   -0.8265 C.2     1  UNL1        0.0000
     25 C           2.0516   13.4796    0.4234 C.2     1  UNL1        0.0000
     26 H           2.7659   11.5361    6.0027 H       1  UNL1        0.0000
     27 H           0.0346   13.9413    6.7720 H       1  UNL1        0.0000
     28 H           1.0514   12.6805    7.4699 H       1  UNL1        0.0000
     29 H           1.7701   14.1872    6.8758 H       1  UNL1        0.0000
     30 H           0.0290   11.3898    4.0867 H       1  UNL1        0.0000
     31 H           0.1398   10.9368    5.7867 H       1  UNL1        0.0000
     32 H          -0.9506   12.2382    5.2836 H       1  UNL1        0.0000
     33 H           4.4507   12.7930    4.9453 H       1  UNL1        0.0000
     34 H           3.4645   13.8937    5.6640 H       1  UNL1        0.0000
     35 H           3.1941   16.1377    4.2219 H       1  UNL1        0.0000
     36 H           5.0764   16.9934    2.6320 H       1  UNL1        0.0000
     37 H           5.3886   16.0164    4.0694 H       1  UNL1        0.0000
     38 H           7.1872   16.0610    1.5745 H       1  UNL1        0.0000
     39 H           8.1596   14.1368    0.3370 H       1  UNL1        0.0000
     40 H           6.9588   11.9475    0.3955 H       1  UNL1        0.0000
     41 H           4.8205   11.7972    1.6711 H       1  UNL1        0.0000
     42 H           3.0370   17.4731    2.0368 H       1  UNL1        0.0000
     43 H           1.6328   16.7230    2.8274 H       1  UNL1        0.0000
     44 H           1.8590   17.2159   -0.2320 H       1  UNL1        0.0000
     45 H           1.2556   15.6281   -2.0529 H       1  UNL1        0.0000
     46 H           1.3712   13.1779   -1.5762 H       1  UNL1        0.0000
     47 H           2.1112   12.4298    0.6724 H       1  UNL1        0.0000
@<TRIPOS>BOND
     1    45    23    1
     2    46    24    1
     3    23    24    1
     4    23    22    2
     5    24    25    2
     6    44    22    1
     7    22    21    1
     8    39    17    1
     9    40    18    1
    10    25    47    1
    11    25     8    1
    12    17    18    1
    13    17    16    2
    14    18    19    2
    15    21     8    1
    16    21    20    1
    17     8     1    1
    18    16    38    1
    19    16    15    1
    20    19    41    1
    21    19     7    1
    22    42    20    1
    23    15     7    1
    24    15    14    1
    25     7     1    1
    26    20    43    1
    27    20     6    1
    28    36    14    1
    29     3     1    1
    30     3     9    1
    31     1     6    1
    32     1     2    1
    33     1     5    1
    34    14     6    1
    35    14    37    1
    36     6    35    1
    37     9     4    2
    38     9    10    1
    39     2    11    1
    40    30    13    1
    41     5    33    1
    42     5    10    1
    43     5    34    1
    44    13    32    1
    45    13    11    1
    46    13    31    1
    47    10    11    1
    48    10    26    1
    49    11    12    1
    50    12    27    1
    51    12    29    1
    52    12    28    1
