@<TRIPOS>MOLECULE
CSD_code = HOSLEI | q = 1 | S = 0 | Stoichiometry = C17H22CoN4O2S(1+) | MND = 6
 47 52 0 0 0
SMALL
GASTEIGER

@<TRIPOS>ATOM
      1 CO          4.8055   20.6455    6.1008 Co.oh   1  UNL1        0.0000
      2 S           3.9423   21.4409    4.1828 S.3     1  UNL1        0.0000
      3 O           5.9690   19.5398    5.1866 O.3     1  UNL1        0.0000
      4 O           6.0508   17.7315    3.9063 O.2     1  UNL1        0.0000
      5 N           3.5184   19.1615    5.7809 N.4     1  UNL1        0.0000
      6 N           3.6192   21.8378    7.2004 N.4     1  UNL1        0.0000
      7 N           5.4421   19.9914    7.9149 N.pl3   1  UNL1        0.0000
      8 N           6.0535   22.0277    6.2329 N.pl3   1  UNL1        0.0000
      9 C           5.4470   18.6123    4.4613 C.2     1  UNL1        0.0000
     10 C           3.9005   18.7373    4.4108 C.3     1  UNL1        0.0000
     11 C           3.5004   19.8297    3.4043 C.3     1  UNL1        0.0000
     12 C           1.9938   19.8147    3.1493 C.3     1  UNL1        0.0000
     13 C           4.2596   19.6772    2.0922 C.3     1  UNL1        0.0000
     14 C           3.6067   21.3907    8.6048 C.3     1  UNL1        0.0000
     15 C           4.8397   20.5936    8.9429 C.3     1  UNL1        0.0000
     16 C           5.2939   20.4435   10.2447 C.2     1  UNL1        0.0000
     17 C           6.4005   19.6423   10.4802 C.2     1  UNL1        0.0000
     18 C           7.0166   19.0189    9.4053 C.2     1  UNL1        0.0000
     19 C           6.5068   19.2266    8.1359 C.2     1  UNL1        0.0000
     20 C           4.1295   23.2081    7.0198 C.3     1  UNL1        0.0000
     21 C           5.6053   23.1726    6.7603 C.3     1  UNL1        0.0000
     22 C           6.4412   24.2560    6.9779 C.2     1  UNL1        0.0000
     23 C           7.7768   24.1577    6.6220 C.2     1  UNL1        0.0000
     24 C           8.2268   22.9733    6.0595 C.2     1  UNL1        0.0000
     25 C           7.3353   21.9301    5.8860 C.2     1  UNL1        0.0000
     26 H           3.4467   17.7779    4.1342 H       1  UNL1        0.0000
     27 H           1.4183   19.9296    4.0672 H       1  UNL1        0.0000
     28 H           1.7282   20.6372    2.4902 H       1  UNL1        0.0000
     29 H           1.7063   18.8826    2.6672 H       1  UNL1        0.0000
     30 H           5.3287   19.8064    2.2429 H       1  UNL1        0.0000
     31 H           4.0918   18.6874    1.6728 H       1  UNL1        0.0000
     32 H           3.9201   20.4254    1.3799 H       1  UNL1        0.0000
     33 H           3.6373   18.3607    6.4055 H       1  UNL1        0.0000
     34 H           2.5220   19.3920    5.7784 H       1  UNL1        0.0000
     35 H           2.6601   21.8414    6.8574 H       1  UNL1        0.0000
     36 H           2.7401   20.7394    8.7643 H       1  UNL1        0.0000
     37 H           3.5087   22.2395    9.2907 H       1  UNL1        0.0000
     38 H           4.7865   20.9406   11.0561 H       1  UNL1        0.0000
     39 H           6.7728   19.5083   11.4836 H       1  UNL1        0.0000
     40 H           7.8761   18.3846    9.5449 H       1  UNL1        0.0000
     41 H           6.9515   18.7722    7.2612 H       1  UNL1        0.0000
     42 H           3.8872   23.8504    7.8733 H       1  UNL1        0.0000
     43 H           3.6585   23.6290    6.1245 H       1  UNL1        0.0000
     44 H           6.0445   25.1630    7.4053 H       1  UNL1        0.0000
     45 H           8.4465   24.9895    6.7729 H       1  UNL1        0.0000
     46 H           9.2532   22.8555    5.7534 H       1  UNL1        0.0000
     47 H           7.6418   20.9923    5.4451 H       1  UNL1        0.0000
@<TRIPOS>BOND
     1    32    13    1
     2    31    13    1
     3    13    30    1
     4    13    11    1
     5    28    12    1
     6    29    12    1
     7    12    11    1
     8    12    27    1
     9    11     2    1
    10    11    10    1
    11     4     9    2
    12    26    10    1
    13     2     1    1
    14    10     9    1
    15    10     5    1
    16     9     3    1
    17     3     1    1
    18    47    25    1
    19    46    24    1
    20    34     5    1
    21     5     1    1
    22     5    33    1
    23    25    24    2
    24    25     8    1
    25    24    23    1
    26     1     8    1
    27     1     6    1
    28     1     7    1
    29    43    20    1
    30     8    21    1
    31    23    45    1
    32    23    22    2
    33    21    22    1
    34    21    20    1
    35    35     6    1
    36    22    44    1
    37    20     6    1
    38    20    42    1
    39     6    14    1
    40    41    19    1
    41     7    19    1
    42     7    15    1
    43    19    18    2
    44    14    36    1
    45    14    15    1
    46    14    37    1
    47    15    16    1
    48    18    40    1
    49    18    17    1
    50    16    17    2
    51    16    38    1
    52    17    39    1
