@<TRIPOS>MOLECULE
CSD_code = HOSLIM | q = 1 | S = 0 | Stoichiometry = C17H22CoN4O2S(1+) | MND = 6
 47 52 0 0 0
SMALL
GASTEIGER

@<TRIPOS>ATOM
      1 CO          3.9045    2.0794   11.4267 Co.oh   1  UNL1        0.0000
      2 S           4.8299    2.8038    9.5099 S.3     1  UNL1        0.0000
      3 O           4.5364    0.3655   11.1511 O.3     1  UNL1        0.0000
      4 O           6.3920   -0.8469   11.0984 O.2     1  UNL1        0.0000
      5 N           5.7368    2.3858   12.1426 N.4     1  UNL1        0.0000
      6 N           3.1269    3.8930   11.8079 N.4     1  UNL1        0.0000
      7 N           3.0560    1.5941   13.2064 N.pl3   1  UNL1        0.0000
      8 N           2.2628    1.7195   10.6146 N.pl3   1  UNL1        0.0000
      9 C           5.8147    0.2086   11.1356 C.2     1  UNL1        0.0000
     10 C           6.5526    1.5724   11.2066 C.3     1  UNL1        0.0000
     11 C           6.5557    2.2354    9.8184 C.3     1  UNL1        0.0000
     12 C           7.4756    3.4555    9.7955 C.3     1  UNL1        0.0000
     13 C           6.9636    1.2461    8.7339 C.3     1  UNL1        0.0000
     14 C           2.6837    3.9741   13.2113 C.3     1  UNL1        0.0000
     15 C           2.4109    2.6087   13.7866 C.3     1  UNL1        0.0000
     16 C           1.5881    2.4167   14.8866 C.2     1  UNL1        0.0000
     17 C           1.4399    1.1364   15.3972 C.2     1  UNL1        0.0000
     18 C           2.1182    0.0903   14.7893 C.2     1  UNL1        0.0000
     19 C           2.9118    0.3638   13.6894 C.2     1  UNL1        0.0000
     20 C           2.0415    4.0899   10.8312 C.3     1  UNL1        0.0000
     21 C           1.4447    2.7665   10.4584 C.3     1  UNL1        0.0000
     22 C           0.1730    2.6300    9.9256 C.2     1  UNL1        0.0000
     23 C          -0.2581    1.3752    9.5259 C.2     1  UNL1        0.0000
     24 C           0.6039    0.2999    9.6762 C.2     1  UNL1        0.0000
     25 C           1.8537    0.5123   10.2293 C.2     1  UNL1        0.0000
     26 H           7.5793    1.4350   11.5668 H       1  UNL1        0.0000
     27 H           7.2047    4.1908   10.5522 H       1  UNL1        0.0000
     28 H           8.5071    3.1483    9.9554 H       1  UNL1        0.0000
     29 H           7.4097    3.9425    8.8259 H       1  UNL1        0.0000
     30 H           6.2498    0.4288    8.6632 H       1  UNL1        0.0000
     31 H           7.0053    1.7499    7.7712 H       1  UNL1        0.0000
     32 H           7.9423    0.8257    8.9560 H       1  UNL1        0.0000
     33 H           5.8845    2.0249   13.0877 H       1  UNL1        0.0000
     34 H           6.0950    3.3437   12.1299 H       1  UNL1        0.0000
     35 H           3.8003    4.6390   11.6420 H       1  UNL1        0.0000
     36 H           3.4794    4.4301   13.8110 H       1  UNL1        0.0000
     37 H           1.7954    4.6078   13.3109 H       1  UNL1        0.0000
     38 H           1.0797    3.2551   15.3356 H       1  UNL1        0.0000
     39 H           0.8071    0.9607   16.2529 H       1  UNL1        0.0000
     40 H           2.0343   -0.9187   15.1573 H       1  UNL1        0.0000
     41 H           3.4558   -0.4137   13.1709 H       1  UNL1        0.0000
     42 H           2.4797    4.5101    9.9191 H       1  UNL1        0.0000
     43 H           1.2794    4.7843   11.2013 H       1  UNL1        0.0000
     44 H          -0.4581    3.4972    9.8138 H       1  UNL1        0.0000
     45 H          -1.2398    1.2434    9.0993 H       1  UNL1        0.0000
     46 H           0.3180   -0.6918    9.3666 H       1  UNL1        0.0000
     47 H           2.5593   -0.2959   10.3582 H       1  UNL1        0.0000
@<TRIPOS>BOND
     1    31    13    1
     2    30    13    1
     3    13    32    1
     4    13    11    1
     5    29    12    1
     6    45    23    1
     7    46    24    1
     8     2    11    1
     9     2     1    1
    10    23    24    1
    11    23    22    2
    12    24    25    2
    13    12    11    1
    14    12    28    1
    15    12    27    1
    16    44    22    1
    17    11    10    1
    18    42    20    1
    19    22    21    1
    20    25    47    1
    21    25     8    1
    22    21     8    1
    23    21    20    1
    24     8     1    1
    25    20    43    1
    26    20     6    1
    27     4     9    2
    28     9     3    1
    29     9    10    1
    30     3     1    1
    31    10    26    1
    32    10     5    1
    33     1     6    1
    34     1     5    1
    35     1     7    1
    36    35     6    1
    37     6    14    1
    38    34     5    1
    39     5    33    1
    40    41    19    1
    41     7    19    1
    42     7    15    1
    43    14    37    1
    44    14    15    1
    45    14    36    1
    46    19    18    2
    47    15    16    1
    48    18    40    1
    49    18    17    1
    50    16    38    1
    51    16    17    2
    52    17    39    1
