@<TRIPOS>MOLECULE
CSD_code = MCYSCO | q = 1 | S = 0 | Stoichiometry = C8H16CoN2O4S2(1+) | MND = 6
 33 36 0 0 0
SMALL
GASTEIGER

@<TRIPOS>ATOM
      1 CO         -3.0404   -2.3365   -1.4549 Co.oh   1  UNL1        0.0000
      2 C          -5.7793   -0.5047   -1.6021 C.3     1  UNL1        0.0000
      3 C          -4.0542   -0.6744   -3.8698 C.3     1  UNL1        0.0000
      4 C          -2.5943   -0.5481   -3.4499 C.3     1  UNL1        0.0000
      5 C          -2.5625    0.2397   -2.0924 C.2     1  UNL1        0.0000
      6 C          -1.3891   -1.9828    1.3793 C.3     1  UNL1        0.0000
      7 C          -1.7373   -4.5794    0.2464 C.3     1  UNL1        0.0000
      8 C          -3.1665   -4.7671   -0.2490 C.3     1  UNL1        0.0000
      9 C          -4.0804   -3.7865    0.5675 C.2     1  UNL1        0.0000
     10 H          -2.0163   -0.0194   -4.2157 H       1  UNL1        0.0000
     11 H          -0.6283   -2.3038    2.0863 H       1  UNL1        0.0000
     12 H          -1.2624   -0.9300    1.1405 H       1  UNL1        0.0000
     13 H          -1.6757   -4.7302    1.3232 H       1  UNL1        0.0000
     14 H          -1.0483   -5.2629   -0.2534 H       1  UNL1        0.0000
     15 H          -3.4912   -5.8038   -0.1078 H       1  UNL1        0.0000
     16 H          -4.1890   -4.5663   -2.0055 H       1  UNL1        0.0000
     17 H          -2.5880   -4.8250   -2.2243 H       1  UNL1        0.0000
     18 H          -4.5282    0.3042   -3.9287 H       1  UNL1        0.0000
     19 H          -4.1508   -1.1802   -4.8322 H       1  UNL1        0.0000
     20 H          -6.1340   -1.0481   -0.7302 H       1  UNL1        0.0000
     21 H          -5.0782    0.2632   -1.2915 H       1  UNL1        0.0000
     22 H          -6.6170   -0.0801   -2.1494 H       1  UNL1        0.0000
     23 H          -1.0484   -1.7993   -2.9863 H       1  UNL1        0.0000
     24 H          -2.1726   -2.5012   -3.9464 H       1  UNL1        0.0000
     25 H          -2.3883   -2.1497    1.7689 H       1  UNL1        0.0000
     26 N          -2.0558   -1.8878   -3.1368 N.4     1  UNL1        0.0000
     27 N          -3.2635   -4.3136   -1.6520 N.4     1  UNL1        0.0000
     28 O          -2.7461   -0.5536   -1.1013 O.3     1  UNL1        0.0000
     29 O          -2.4210    1.4296   -2.0551 O.2     1  UNL1        0.0000
     30 O          -4.0819   -2.6181    0.0375 O.3     1  UNL1        0.0000
     31 O          -4.6446   -4.1318    1.5673 O.2     1  UNL1        0.0000
     32 S          -4.9702   -1.7133   -2.6647 S.3     1  UNL1        0.0000
     33 S          -1.1455   -2.8891   -0.1580 S.3     1  UNL1        0.0000
@<TRIPOS>BOND
     1    19     3    1
     2    10     4    1
     3    24    26    1
     4    18     3    1
     5     3     4    1
     6     3    32    1
     7     4    26    1
     8     4     5    1
     9    26    23    1
    10    26     1    1
    11    32     2    1
    12    32     1    1
    13    17    27    1
    14    22     2    1
    15     5    29    2
    16     5    28    1
    17    16    27    1
    18    27     1    1
    19    27     8    1
    20     2    21    1
    21     2    20    1
    22     1    28    1
    23     1    33    1
    24     1    30    1
    25    14     7    1
    26     8    15    1
    27     8     7    1
    28     8     9    1
    29    33     7    1
    30    33     6    1
    31    30     9    1
    32     7    13    1
    33     9    31    2
    34    12     6    1
    35     6    25    1
    36     6    11    1
