@<TRIPOS>MOLECULE
CSD_code = ZABVOQ | q = 0 | S = 0 | Stoichiometry = C27H36CoN2P | MND = 4
 67 71 0 0 0
SMALL
GASTEIGER

@<TRIPOS>ATOM
      1 CO         -1.4424   11.9727   -2.9039 Co.oh   1  UNL1        0.0000
      2 P          -3.2662   10.7730   -2.7593 P.3     1  UNL1        0.0000
      3 N           0.2686   12.7764   -2.7850 N.pl3   1  UNL1        0.0000
      4 N          -1.0648   11.3422   -1.2178 N.pl3   1  UNL1        0.0000
      5 C           1.0602   13.3072   -3.7185 C.2     1  UNL1        0.0000
      6 H           0.7262   13.2166   -4.7415 H       1  UNL1        0.0000
      7 C           2.2420   13.9610   -3.4394 C.2     1  UNL1        0.0000
      8 H           2.8333   14.3747   -4.2410 H       1  UNL1        0.0000
      9 C           2.6459   14.0913   -2.1120 C.2     1  UNL1        0.0000
     10 H           3.5528   14.6188   -1.8580 H       1  UNL1        0.0000
     11 C           1.8659   13.5129   -1.1353 C.2     1  UNL1        0.0000
     12 H           2.1570   13.5667   -0.0983 H       1  UNL1        0.0000
     13 C           0.6949   12.8409   -1.4933 C.2     1  UNL1        0.0000
     14 C          -0.1238   12.0839   -0.5771 C.2     1  UNL1        0.0000
     15 C           0.0179   12.0372    0.8102 C.2     1  UNL1        0.0000
     16 H           0.7427   12.6652    1.3033 H       1  UNL1        0.0000
     17 C          -0.7856   11.1913    1.5429 C.2     1  UNL1        0.0000
     18 H          -0.6978   11.1352    2.6168 H       1  UNL1        0.0000
     19 C          -1.7187   10.3982    0.8690 C.2     1  UNL1        0.0000
     20 H          -2.3450    9.7076    1.4137 H       1  UNL1        0.0000
     21 C          -1.8316   10.5059   -0.4999 C.2     1  UNL1        0.0000
     22 C          -2.7891    9.6982   -1.3150 C.3     1  UNL1        0.0000
     23 H          -3.6269    9.3234   -0.7259 H       1  UNL1        0.0000
     24 H          -2.2405    8.8444   -1.7221 H       1  UNL1        0.0000
     25 C          -4.8595   11.5685   -2.1159 C.3     1  UNL1        0.0000
     26 C          -4.4323   12.2859   -0.8309 C.3     1  UNL1        0.0000
     27 H          -4.2274   11.5875   -0.0228 H       1  UNL1        0.0000
     28 H          -5.2186   12.9633   -0.4995 H       1  UNL1        0.0000
     29 H          -3.5321   12.8757   -1.0189 H       1  UNL1        0.0000
     30 C          -5.3159   12.6385   -3.1075 C.3     1  UNL1        0.0000
     31 H          -4.5025   13.3327   -3.2969 H       1  UNL1        0.0000
     32 H          -6.1562   13.1946   -2.6912 H       1  UNL1        0.0000
     33 H          -5.6319   12.2090   -4.0532 H       1  UNL1        0.0000
     34 C          -6.0109   10.6106   -1.8247 C.3     1  UNL1        0.0000
     35 H          -6.4387   10.2214   -2.7451 H       1  UNL1        0.0000
     36 H          -6.7984   11.1466   -1.2947 H       1  UNL1        0.0000
     37 H          -5.7006    9.7758   -1.2002 H       1  UNL1        0.0000
     38 C          -3.6125    9.4655   -4.0835 C.3     1  UNL1        0.0000
     39 C          -2.2078    9.1287   -4.5968 C.3     1  UNL1        0.0000
     40 H          -1.6815   10.0481   -4.8638 H       1  UNL1        0.0000
     41 H          -2.2628    8.4884   -5.4760 H       1  UNL1        0.0000
     42 H          -1.6217    8.6104   -3.8395 H       1  UNL1        0.0000
     43 C          -4.4174   10.0685   -5.2330 C.3     1  UNL1        0.0000
     44 H          -5.4553   10.2262   -4.9494 H       1  UNL1        0.0000
     45 H          -4.4064    9.3921   -6.0875 H       1  UNL1        0.0000
     46 H          -3.9842   11.0153   -5.5459 H       1  UNL1        0.0000
     47 C          -4.3026    8.1906   -3.5995 C.3     1  UNL1        0.0000
     48 H          -3.7413    7.6941   -2.8127 H       1  UNL1        0.0000
     49 H          -4.3826    7.4954   -4.4353 H       1  UNL1        0.0000
     50 H          -5.3059    8.3881   -3.2357 H       1  UNL1        0.0000
     51 C          -1.9742   13.0276   -4.4888 C.3     1  UNL1        0.0000
     52 H          -1.2661   12.8209   -5.3067 H       1  UNL1        0.0000
     53 H          -2.9561   12.7816   -4.9127 H       1  UNL1        0.0000
     54 C          -1.9855   14.5530   -4.2575 C.3     1  UNL1        0.0000
     55 H          -2.7425   14.8138   -3.5131 H       1  UNL1        0.0000
     56 H          -1.0182   14.9020   -3.8906 H       1  UNL1        0.0000
     57 C          -2.3002   15.2330   -5.5577 C.ar    1  UNL1        0.0000
     58 C          -1.2799   15.6503   -6.4047 C.ar    1  UNL1        0.0000
     59 H          -0.2510   15.5354   -6.0904 H       1  UNL1        0.0000
     60 C          -1.5635   16.2142   -7.6352 C.ar    1  UNL1        0.0000
     61 H          -0.7569   16.5365   -8.2793 H       1  UNL1        0.0000
     62 C          -2.8776   16.3684   -8.0427 C.ar    1  UNL1        0.0000
     63 H          -3.1013   16.8096   -9.0034 H       1  UNL1        0.0000
     64 C          -3.9033   15.9552   -7.2093 C.ar    1  UNL1        0.0000
     65 H          -4.9322   16.0746   -7.5198 H       1  UNL1        0.0000
     66 C          -3.6157   15.3922   -5.9796 C.ar    1  UNL1        0.0000
     67 H          -4.4224   15.0732   -5.3338 H       1  UNL1        0.0000
@<TRIPOS>BOND
     1    63    62    1
     2    61    60    1
     3    62    60   ar
     4    62    64   ar
     5    60    58   ar
     6    65    64    1
     7    64    66   ar
     8    58    59    1
     9    58    57   ar
    10    45    43    1
    11    66    57   ar
    12    66    67    1
    13    57    54    1
    14    46    43    1
    15    41    39    1
    16    52    51    1
    17    43    44    1
    18    43    38    1
    19    53    51    1
    20    40    39    1
    21     6     5    1
    22    39    38    1
    23    39    42    1
    24    51    54    1
    25    51     1    1
    26    49    47    1
    27    54    56    1
    28    54    55    1
    29     8     7    1
    30    38    47    1
    31    38     2    1
    32    33    30    1
    33     5     7    2
    34     5     3    1
    35    47    50    1
    36    47    48    1
    37     7     9    1
    38    31    30    1
    39    30    32    1
    40    30    25    1
    41     1     3    1
    42     1     2    1
    43     1     4    1
    44     3    13    1
    45     2    25    1
    46     2    22    1
    47    35    34    1
    48    25    34    1
    49    25    26    1
    50     9    10    1
    51     9    11    2
    52    34    36    1
    53    34    37    1
    54    24    22    1
    55    13    11    1
    56    13    14    2
    57    22    23    1
    58    22    21    1
    59     4    14    1
    60     4    21    1
    61    11    12    1
    62    29    26    1
    63    26    28    1
    64    26    27    1
    65    14    15    1
    66    21    19    2
    67    15    16    1
    68    15    17    2
    69    19    20    1
    70    19    17    1
    71    17    18    1
