@<TRIPOS>MOLECULE
CSD_code = HUJKUT | q = 0 | S = 0 | Stoichiometry = C19H23CoS4Si | MND = 8
 48 50 0 0 0
SMALL
GASTEIGER

@<TRIPOS>ATOM
      1 CO          6.0524    5.7420    2.6411 Co.oh   1  UNL1        0.0000
      2 S           6.3607    4.0678    1.2390 S.3     1  UNL1        0.0000
      3 S           6.4977    4.4028    4.4182 S.2     1  UNL1        0.0000
      4 S           7.9444    1.5580    1.4370 S.3     1  UNL1        0.0000
      5 S           7.8388    1.8786    4.7775 S.3     1  UNL1        0.0000
      6 SI          3.4355    4.8133    0.6507 Si      1  UNL1        0.0000
      7 C           7.0916    2.8299    2.2935 C.3     1  UNL1        0.0000
      8 C           7.1276    3.0163    3.6331 C.2     1  UNL1        0.0000
      9 C           6.6091    0.2805    1.2494 C.3     1  UNL1        0.0000
     10 C           7.2545    0.2330    4.1717 C.3     1  UNL1        0.0000
     11 C           5.5574    0.3847    2.3038 C.ar    1  UNL1        0.0000
     12 C           5.8558    0.3482    3.6684 C.ar    1  UNL1        0.0000
     13 C           4.8281    0.4876    4.5952 C.ar    1  UNL1        0.0000
     14 C           3.5175    0.6470    4.1907 C.ar    1  UNL1        0.0000
     15 C           3.2176    0.6622    2.8394 C.ar    1  UNL1        0.0000
     16 C           4.2324    0.5340    1.9099 C.ar    1  UNL1        0.0000
     17 C           4.7857    4.4323    1.9438 C.3     1  UNL1        0.0000
     18 C           4.0757    5.9419   -0.7484 C.3     1  UNL1        0.0000
     19 C           1.9406    5.5625    1.5644 C.3     1  UNL1        0.0000
     20 C           2.9274    3.1580   -0.1555 C.3     1  UNL1        0.0000
     21 C           6.3361    7.4542    1.4434 C.2     1  UNL1        0.0000
     22 C           7.4528    7.3140    2.3119 C.2     1  UNL1        0.0000
     23 C           6.9725    7.3471    3.6269 C.2     1  UNL1        0.0000
     24 C           5.5527    7.5214    3.5847 C.3     1  UNL1        0.0000
     25 C           5.1738    7.6329    2.2316 C.2     1  UNL1        0.0000
     26 H           7.9593   -0.1328    3.4306 H       1  UNL1        0.0000
     27 H           7.3046   -0.3888    5.0652 H       1  UNL1        0.0000
     28 H           6.1775    0.4121    0.2577 H       1  UNL1        0.0000
     29 H           7.1356   -0.6742    1.2847 H       1  UNL1        0.0000
     30 H           3.9994    0.5461    0.8554 H       1  UNL1        0.0000
     31 H           2.1956    0.7782    2.5102 H       1  UNL1        0.0000
     32 H           2.7348    0.7601    4.9251 H       1  UNL1        0.0000
     33 H           5.0732    0.4824    5.6472 H       1  UNL1        0.0000
     34 H           4.4855    3.6414    2.6329 H       1  UNL1        0.0000
     35 H           4.0541    6.9910   -0.4751 H       1  UNL1        0.0000
     36 H           3.4625    5.8265   -1.6371 H       1  UNL1        0.0000
     37 H           5.0962    5.6878   -1.0203 H       1  UNL1        0.0000
     38 H           1.4663    4.8233    2.2020 H       1  UNL1        0.0000
     39 H           1.1955    5.9130    0.8579 H       1  UNL1        0.0000
     40 H           2.2227    6.3987    2.1949 H       1  UNL1        0.0000
     41 H           3.7751    2.6669   -0.6243 H       1  UNL1        0.0000
     42 H           2.1781    3.3234   -0.9233 H       1  UNL1        0.0000
     43 H           2.5041    2.4760    0.5738 H       1  UNL1        0.0000
     44 H           6.3931    7.5611    0.3720 H       1  UNL1        0.0000
     45 H           8.4869    7.2840    2.0104 H       1  UNL1        0.0000
     46 H           7.5698    7.3331    4.5248 H       1  UNL1        0.0000
     47 H           4.9237    7.7031    4.4416 H       1  UNL1        0.0000
     48 H           4.1954    7.8936    1.8658 H       1  UNL1        0.0000
@<TRIPOS>BOND
     1    36    18    1
     2    37    18    1
     3    42    20    1
     4    18    35    1
     5    18     6    1
     6    41    20    1
     7    20    43    1
     8    20     6    1
     9    28     9    1
    10    44    21    1
    11     6    19    1
    12     6    17    1
    13    30    16    1
    14    39    19    1
    15     2    17    1
    16     2     7    1
    17     9    29    1
    18     9     4    1
    19     9    11    1
    20     4     7    1
    21    21    25    2
    22    21    22    1
    23    19    40    1
    24    19    38    1
    25    48    25    1
    26    16    11   ar
    27    16    15   ar
    28    17    34    1
    29    17     1    1
    30    45    22    1
    31    25    24    1
    32     7     8    1
    33    11    12   ar
    34    22    23    2
    35    31    15    1
    36     1    24    1
    37    15    14   ar
    38    26    10    1
    39    24    23    1
    40    24    47    1
    41    23    46    1
    42     8     3    2
    43     8     5    1
    44    12    10    1
    45    12    13   ar
    46    10     5    1
    47    10    27    1
    48    14    13   ar
    49    14    32    1
    50    13    33    1
