@<TRIPOS>MOLECULE
CSD_code = AJUNAW | q = 1 | S = 0 | Stoichiometry = C12H21CoN7O(1+) | MND = 6
 42 45 0 0 0
SMALL
GASTEIGER

@<TRIPOS>ATOM
      1 CO          1.5481    1.7078    2.8758 Co.oh   1  UNL1        0.0000
      2 N           1.5238    3.5276    2.4178 N.3     1  UNL1        0.0000
      3 N           1.9908    1.3464    0.9273 N.4     1  UNL1        0.0000
      4 H           3.0106    1.2904    0.8920 H       1  UNL1        0.0000
      5 H           1.6374    0.5154    0.4566 H       1  UNL1        0.0000
      6 N           1.5757   -0.2638    3.3774 N.4     1  UNL1        0.0000
      7 H           2.0249   -0.8665    2.6895 H       1  UNL1        0.0000
      8 H           2.1258   -0.3459    4.2314 H       1  UNL1        0.0000
      9 N          -0.5060    1.3277    2.5742 N.4     1  UNL1        0.0000
     10 H          -0.9305    1.7034    3.4225 H       1  UNL1        0.0000
     11 H          -1.0027    1.7529    1.7946 H       1  UNL1        0.0000
     12 N           3.3596    1.8424    3.1839 N.2     1  UNL1        0.0000
     13 N           3.8892    2.5527    3.9594 N.2     1  UNL1        0.0000
     14 N           4.5292    3.1898    4.6374 N.2     1  UNL1        0.0000
     15 O           1.1405    1.9880    4.6310 O.3     1  UNL1        0.0000
     16 C           1.0249    4.3965    4.6021 C.ar    1  UNL1        0.0000
     17 C           0.8872    3.1184    5.2141 C.ar    1  UNL1        0.0000
     18 C           0.4551    3.0522    6.5583 C.ar    1  UNL1        0.0000
     19 H           0.3898    2.0737    7.0082 H       1  UNL1        0.0000
     20 C           0.1436    4.1818    7.2645 C.ar    1  UNL1        0.0000
     21 H          -0.1765    4.1021    8.2918 H       1  UNL1        0.0000
     22 C           0.2285    5.4344    6.6533 C.ar    1  UNL1        0.0000
     23 H          -0.0473    6.3215    7.2000 H       1  UNL1        0.0000
     24 C           0.6676    5.5327    5.3602 C.ar    1  UNL1        0.0000
     25 H           0.6998    6.5089    4.9055 H       1  UNL1        0.0000
     26 C           1.4977    4.5327    3.2502 C.3     1  UNL1        0.0000
     27 C           1.9690    5.8845    2.7999 C.3     1  UNL1        0.0000
     28 H           2.8362    5.7887    2.1511 H       1  UNL1        0.0000
     29 H           2.2617    6.4915    3.6489 H       1  UNL1        0.0000
     30 H           1.1847    6.4052    2.2500 H       1  UNL1        0.0000
     31 C           1.9487    3.7554    1.0428 C.3     1  UNL1        0.0000
     32 H           3.0376    3.8891    1.0092 H       1  UNL1        0.0000
     33 H           1.4724    4.6503    0.6335 H       1  UNL1        0.0000
     34 C           1.5677    2.5462    0.1969 C.3     1  UNL1        0.0000
     35 H           0.4841    2.5147    0.0622 H       1  UNL1        0.0000
     36 H           2.0360    2.6180   -0.7908 H       1  UNL1        0.0000
     37 C           0.2043   -0.7241    3.6344 C.3     1  UNL1        0.0000
     38 H          -0.1005   -0.3460    4.6121 H       1  UNL1        0.0000
     39 H           0.1302   -1.8158    3.6386 H       1  UNL1        0.0000
     40 C          -0.7083   -0.1280    2.5670 C.3     1  UNL1        0.0000
     41 H          -0.4363   -0.5178    1.5823 H       1  UNL1        0.0000
     42 H          -1.7502   -0.4008    2.7669 H       1  UNL1        0.0000
@<TRIPOS>BOND
     1    36    34    1
     2    35    34    1
     3    34     3    1
     4    34    31    1
     5     5     3    1
     6    33    31    1
     7     4     3    1
     8     3     1    1
     9    32    31    1
    10    31     2    1
    11    41    40    1
    12    11     9    1
    13    28    27    1
    14    30    27    1
    15     2     1    1
    16     2    26    1
    17    40     9    1
    18    40    42    1
    19    40    37    1
    20     9     1    1
    21     9    10    1
    22     7     6    1
    23    27    26    1
    24    27    29    1
    25     1    12    1
    26     1     6    1
    27     1    15    1
    28    12    13    2
    29    26    16    1
    30     6    37    1
    31     6     8    1
    32    37    39    1
    33    37    38    1
    34    13    14    2
    35    16    17   ar
    36    16    24   ar
    37    15    17    1
    38    25    24    1
    39    17    18   ar
    40    24    22   ar
    41    18    19    1
    42    18    20   ar
    43    22    23    1
    44    22    20   ar
    45    20    21    1
