@<TRIPOS>MOLECULE
CSD_code = AMIJOV | q = 0 | S = 0 | Stoichiometry = C12H17CoN4O6 | MND = 6
 40 43 0 0 0
SMALL
GASTEIGER

@<TRIPOS>ATOM
      1 CO          0.4291    1.3012    2.1213 Co.oh   1  UNL1        0.0000
      2 N          -1.2662    0.7628    2.5854 N.3     1  UNL1        0.0000
      3 N          -0.1694    1.1268    0.4396 N.pl3   1  UNL1        0.0000
      4 N           1.1732   -0.3442    2.3144 N.3     1  UNL1        0.0000
      5 N           1.1314    1.6258    3.7898 N.pl3   1  UNL1        0.0000
      6 O          -1.7785    0.5067    3.8434 O.3     1  UNL1        0.0000
      7 H          -1.1018    0.7782    4.4813 H       1  UNL1        0.0000
      8 O           2.0228    1.8899    1.3633 O.3     1  UNL1        0.0000
      9 O           2.9118    2.4968   -0.5731 O.2     1  UNL1        0.0000
     10 O           0.9405   -1.2685    1.5087 O.3     1  UNL1        0.0000
     11 O          -0.1793    3.1246    2.2257 O.3     1  UNL1        0.0000
     12 O          -0.1251    4.9272    3.5128 O.2     1  UNL1        0.0000
     13 C          -2.0882    0.6850    1.5844 C.2     1  UNL1        0.0000
     14 C          -1.4375    0.9304    0.3149 C.2     1  UNL1        0.0000
     15 C          -3.5345    0.3614    1.7204 C.3     1  UNL1        0.0000
     16 H          -3.8095    0.3243    2.7705 H       1  UNL1        0.0000
     17 H          -3.7441   -0.6072    1.2680 H       1  UNL1        0.0000
     18 H          -4.1351    1.1162    1.2168 H       1  UNL1        0.0000
     19 C          -2.1589    0.9395   -0.9900 C.3     1  UNL1        0.0000
     20 H          -1.5669    0.4255   -1.7450 H       1  UNL1        0.0000
     21 H          -2.3033    1.9686   -1.3202 H       1  UNL1        0.0000
     22 H          -3.1291    0.4611   -0.9100 H       1  UNL1        0.0000
     23 C           0.7528    1.4183   -0.6042 C.3     1  UNL1        0.0000
     24 H           0.3541    2.1077   -1.3544 H       1  UNL1        0.0000
     25 H           1.0742    0.4928   -1.0958 H       1  UNL1        0.0000
     26 C           2.0275    2.0139    0.0893 C.2     1  UNL1        0.0000
     27 C           1.9963   -0.4360    3.3406 C.2     1  UNL1        0.0000
     28 C           2.0292    0.7500    4.1343 C.2     1  UNL1        0.0000
     29 C           2.7823   -1.6811    3.6069 C.3     1  UNL1        0.0000
     30 H           2.5863   -2.0657    4.6067 H       1  UNL1        0.0000
     31 H           3.8495   -1.4904    3.5060 H       1  UNL1        0.0000
     32 H           2.4905   -2.4298    2.8738 H       1  UNL1        0.0000
     33 C           2.9858    0.9618    5.2573 C.3     1  UNL1        0.0000
     34 H           2.4816    1.4076    6.1130 H       1  UNL1        0.0000
     35 H           3.7620    1.6552    4.9322 H       1  UNL1        0.0000
     36 H           3.4559    0.0306    5.5545 H       1  UNL1        0.0000
     37 C           1.0404    2.9682    4.2867 C.3     1  UNL1        0.0000
     38 H           2.0228    3.4444    4.3664 H       1  UNL1        0.0000
     39 H           0.5498    3.0122    5.2664 H       1  UNL1        0.0000
     40 C           0.1723    3.7831    3.2626 C.2     1  UNL1        0.0000
@<TRIPOS>BOND
     1    20    19    1
     2    24    23    1
     3    21    19    1
     4    25    23    1
     5    19    22    1
     6    19    14    1
     7    23    26    1
     8    23     3    1
     9     9    26    2
    10    26     8    1
    11    14     3    1
    12    14    13    2
    13     3     1    1
    14    18    15    1
    15    17    15    1
    16     8     1    1
    17    10     4    1
    18    13    15    1
    19    13     2    1
    20    15    16    1
    21     1    11    1
    22     1     4    1
    23     1     2    1
    24     1     5    1
    25    11    40    1
    26     4    27    1
    27     2     6    1
    28    32    29    1
    29    40    12    2
    30    40    37    1
    31    27    29    1
    32    27    28    2
    33    31    29    1
    34    29    30    1
    35     5    28    1
    36     5    37    1
    37     6     7    1
    38    28    33    1
    39    37    38    1
    40    37    39    1
    41    35    33    1
    42    33    36    1
    43    33    34    1
