@<TRIPOS>MOLECULE
CSD_code = BUWNUE | q = 1 | S = 0 | Stoichiometry = C9H20CoN8O2(1+) | MND = 6
 40 42 0 0 0
SMALL
GASTEIGER

@<TRIPOS>ATOM
      1 CO          2.4868    5.0462    3.0568 Co.oh   1  UNL1        0.0000
      2 O           1.9176    2.3005    7.8388 O.3     1  UNL1        0.0000
      3 H           1.8571    2.1836    8.7923 H       1  UNL1        0.0000
      4 C           2.6635    2.2812    3.6010 C.ar    1  UNL1        0.0000
      5 N           2.7811    6.0824    5.5091 N.2     1  UNL1        0.3300
      6 C           2.6429    0.9311    3.1392 C.ar    1  UNL1        0.0000
      7 N           2.7319    4.9208    4.8868 N.pl3   1  UNL1        0.0000
      8 C           2.8103    0.1123    5.2660 C.ar    1  UNL1        0.0000
      9 H           2.8541   -0.7870    5.8633 H       1  UNL1        0.0000
     10 N           2.5274    8.3550    5.2938 N.pl3   1  UNL1        0.3300
     11 H           2.7730    8.4278    6.2648 H       1  UNL1        0.0000
     12 H           2.5799    9.1837    4.7289 H       1  UNL1        0.0000
     13 C           2.8546    1.3626    5.8444 C.ar    1  UNL1        0.0000
     14 N           2.7174   -0.0841    3.9561 N.ar    1  UNL1        0.0000
     15 C           2.7844    2.4945    4.9980 C.ar    1  UNL1        0.0000
     16 N           2.1863    5.2390    0.9621 N.4     1  UNL1        0.0000
     17 H           1.2884    5.6286    0.6901 H       1  UNL1        0.0000
     18 H           2.2196    4.2830    0.6140 H       1  UNL1        0.0000
     19 H           2.8956    5.7668    0.4620 H       1  UNL1        0.0000
     20 N           0.5063    4.8379    3.3652 N.4     1  UNL1        0.0000
     21 H           0.3080    4.6153    4.3416 H       1  UNL1        0.0000
     22 H           0.1625    4.0516    2.8137 H       1  UNL1        0.0000
     23 H          -0.0469    5.6609    3.1311 H       1  UNL1        0.0000
     24 C           2.8220    3.8112    5.5500 C.3     1  UNL1        0.0000
     25 H           2.9019    3.9004    6.6262 H       1  UNL1        0.0000
     26 N           2.4221    6.9252    3.4225 N.pl3   1  UNL1        0.3300
     27 H           2.2565    7.7596    2.8743 H       1  UNL1        0.0000
     28 O           2.5741    3.2313    2.7177 O.3     1  UNL1        0.0000
     29 C           2.5873    7.1322    4.7190 C.cat   1  UNL1        0.0000
     30 N           4.4921    5.1149    2.8197 N.4     1  UNL1        0.0000
     31 H           4.9814    5.1464    3.7141 H       1  UNL1        0.0000
     32 H           4.8264    5.9054    2.2713 H       1  UNL1        0.0000
     33 H           4.7828    4.2556    2.3521 H       1  UNL1        0.0000
     34 C           2.5286    0.6544    1.6738 C.3     1  UNL1        0.0000
     35 H           1.6044    1.0758    1.2804 H       1  UNL1        0.0000
     36 H           2.5343   -0.4183    1.5127 H       1  UNL1        0.0000
     37 H           3.3607    1.1075    1.1367 H       1  UNL1        0.0000
     38 C           2.9682    1.4908    7.3405 C.3     1  UNL1        0.0000
     39 H           2.9251    0.4875    7.7786 H       1  UNL1        0.0000
     40 H           3.9440    1.9344    7.6004 H       1  UNL1        0.0000
@<TRIPOS>BOND
     1    19    16    1
     2    18    16    1
     3    17    16    1
     4    16     1    1
     5    37    34    1
     6    35    34    1
     7    36    34    1
     8    34     6    1
     9    32    30    1
    10    33    30    1
    11    28     1    1
    12    28     4    1
    13    22    20    1
    14    30     1    1
    15    30    31    1
    16    27    26    1
    17     1    20    1
    18     1    26    1
    19     1     7    1
    20    23    20    1
    21     6     4   ar
    22     6    14   ar
    23    20    21    1
    24    26    29    1
    25     4    15   ar
    26    14     8   ar
    27    29    10    1
    28    29     5    2
    29    12    10    1
    30     7     5    1
    31     7    24    1
    32    15    24    1
    33    15    13   ar
    34     8    13   ar
    35     8     9    1
    36    10    11    1
    37    24    25    1
    38    13    38    1
    39    38    40    1
    40    38    39    1
    41    38     2    1
    42     2     3    1
