@<TRIPOS>MOLECULE
CSD_code = CIJSEU | q = 1 | S = 0 | Stoichiometry = C22H30CoN4O4(1+) | MND = 6
 61 66 0 0 0
SMALL
GASTEIGER

@<TRIPOS>ATOM
      1 CO          5.7441    3.4110    8.0118 Co.oh   1  UNL1        0.0000
      2 O           4.4044    4.5525    8.5849 O.3     1  UNL1        0.0000
      3 O           9.2328    0.6639    8.4089 O.3     1  UNL1        0.0000
      4 O           6.2398    4.6406    6.7205 O.3     1  UNL1        0.0000
      5 O           4.6811   -0.5946    9.6231 O.3     1  UNL1        0.0000
      6 N           4.6635    2.6042    6.7111 N.3     1  UNL1        0.0000
      7 N           7.2341    2.1591    7.3094 N.4     1  UNL1        0.0000
      8 N           6.8436    4.1678    9.3272 N.3     1  UNL1        0.0000
      9 N           5.1729    2.0843    9.4908 N.4     1  UNL1        0.0000
     10 C           3.3990    4.9396    7.8712 C.ar    1  UNL1        0.0000
     11 C           2.6753    6.0758    8.3027 C.ar    1  UNL1        0.0000
     12 C           1.5777    6.5253    7.6173 C.ar    1  UNL1        0.0000
     13 C           1.1340    5.8719    6.4626 C.ar    1  UNL1        0.0000
     14 C           1.8062    4.7660    6.0177 C.ar    1  UNL1        0.0000
     15 C           2.9380    4.2734    6.6976 C.ar    1  UNL1        0.0000
     16 C           3.5998    3.1225    6.2012 C.3     1  UNL1        0.0000
     17 C           5.2569    1.4233    6.1252 C.3     1  UNL1        0.0000
     18 C           6.7535    1.6909    6.0023 C.3     1  UNL1        0.0000
     19 C           8.6230    2.6363    7.2559 C.3     1  UNL1        0.0000
     20 C           9.6026    1.4594    7.2956 C.3     1  UNL1        0.0000
     21 C           6.7029    5.8243    6.9524 C.ar    1  UNL1        0.0000
     22 C           6.6978    6.7595    5.8910 C.ar    1  UNL1        0.0000
     23 C           7.2062    8.0215    6.0496 C.ar    1  UNL1        0.0000
     24 C           7.7498    8.4290    7.2725 C.ar    1  UNL1        0.0000
     25 C           7.7743    7.5505    8.3215 C.ar    1  UNL1        0.0000
     26 C           7.2620    6.2437    8.1955 C.ar    1  UNL1        0.0000
     27 C           7.3108    5.3685    9.3092 C.3     1  UNL1        0.0000
     28 C           6.9535    3.3576   10.5197 C.3     1  UNL1        0.0000
     29 C           5.5896    2.7153   10.7503 C.3     1  UNL1        0.0000
     30 C           3.7885    1.5938    9.5431 C.3     1  UNL1        0.0000
     31 C           3.7215    0.2377   10.2522 C.3     1  UNL1        0.0000
     32 H           3.0237    6.5782    9.1918 H       1  UNL1        0.0000
     33 H           7.2777    1.3440    7.9289 H       1  UNL1        0.0000
     34 H           9.8975   -0.0165    8.5521 H       1  UNL1        0.0000
     35 H           1.0517    7.3998    7.9696 H       1  UNL1        0.0000
     36 H           0.2720    6.2418    5.9313 H       1  UNL1        0.0000
     37 H           4.5882   -1.4949    9.9491 H       1  UNL1        0.0000
     38 H           5.7313    1.2327    9.3761 H       1  UNL1        0.0000
     39 H           1.4773    4.2515    5.1264 H       1  UNL1        0.0000
     40 H           3.1458    2.6410    5.3335 H       1  UNL1        0.0000
     41 H           5.0880    0.5662    6.7900 H       1  UNL1        0.0000
     42 H           4.8214    1.1955    5.1463 H       1  UNL1        0.0000
     43 H           7.2790    0.7923    5.6643 H       1  UNL1        0.0000
     44 H           6.9100    2.4968    5.2818 H       1  UNL1        0.0000
     45 H           8.8112    3.2626    8.1289 H       1  UNL1        0.0000
     46 H           8.7751    3.2397    6.3614 H       1  UNL1        0.0000
     47 H          10.6231    1.8413    7.4026 H       1  UNL1        0.0000
     48 H           9.5488    0.8687    6.3717 H       1  UNL1        0.0000
     49 H           6.2744    6.4409    4.9510 H       1  UNL1        0.0000
     50 H           7.1812    8.7132    5.2210 H       1  UNL1        0.0000
     51 H           8.1418    9.4272    7.3825 H       1  UNL1        0.0000
     52 H           8.1885    7.8511    9.2730 H       1  UNL1        0.0000
     53 H           7.8047    5.7524   10.2034 H       1  UNL1        0.0000
     54 H           7.2531    3.9549   11.3875 H       1  UNL1        0.0000
     55 H           7.7077    2.5765   10.3572 H       1  UNL1        0.0000
     56 H           5.6351    2.0004   11.5778 H       1  UNL1        0.0000
     57 H           4.8657    3.4987   10.9855 H       1  UNL1        0.0000
     58 H           3.4253    1.4610    8.5232 H       1  UNL1        0.0000
     59 H           3.1528    2.3254   10.0410 H       1  UNL1        0.0000
     60 H           3.9494    0.3391   11.3215 H       1  UNL1        0.0000
     61 H           2.7122   -0.1745   10.1515 H       1  UNL1        0.0000
@<TRIPOS>BOND
     1    49    22    1
     2    39    14    1
     3    42    17    1
     4    50    23    1
     5    44    18    1
     6    40    16    1
     7    43    18    1
     8    22    23   ar
     9    22    21   ar
    10    36    13    1
    11    18    17    1
    12    18     7    1
    13    14    13   ar
    14    14    15   ar
    15    23    24   ar
    16    17     6    1
    17    17    41    1
    18    16    15    1
    19    16     6    1
    20    46    19    1
    21    48    20    1
    22    13    12   ar
    23    15    10   ar
    24     6     1    1
    25     4    21    1
    26     4     1    1
    27    21    26   ar
    28    19    20    1
    29    19     7    1
    30    19    45    1
    31    24    51    1
    32    24    25   ar
    33    20    47    1
    34    20     3    1
    35     7    33    1
    36     7     1    1
    37    12    35    1
    38    12    11   ar
    39    10    11   ar
    40    10     2    1
    41     1     2    1
    42     1     8    1
    43     1     9    1
    44    26    25   ar
    45    26    27    1
    46    11    32    1
    47    25    52    1
    48     3    34    1
    49    58    30    1
    50    27     8    1
    51    27    53    1
    52     8    28    1
    53    38     9    1
    54     9    30    1
    55     9    29    1
    56    30    59    1
    57    30    31    1
    58     5    37    1
    59     5    31    1
    60    61    31    1
    61    31    60    1
    62    55    28    1
    63    28    29    1
    64    28    54    1
    65    29    57    1
    66    29    56    1
