@<TRIPOS>MOLECULE
CSD_code = DOCPOD | q = -1 | S = 0 | Stoichiometry = C28H18CoN6O8(1-) | MND = 6
 61 68 0 0 0
SMALL
GASTEIGER

@<TRIPOS>ATOM
      1 CO         -0.3859    2.8278   12.5018 Co.oh   1  UNL1        0.0000
      2 O           2.3677    1.6949   10.5457 O.2     1  UNL1        0.0000
      3 O          -2.4817    5.5740   14.3125 O.2     1  UNL1        0.0000
      4 N           0.5465    0.4084   11.0236 N.am    1  UNL1        0.0000
      5 H           0.1320   -0.5200   10.9315 H       1  UNL1        0.0000
      6 O          -0.8108    4.2137   13.7483 O.3     1  UNL1        0.0000
      7 O          -1.9110   -0.1447   10.4100 O.2     1  UNL1        0.0000
      8 N          -2.1341    2.8686   12.1512 N.pl3   1  UNL1        0.0000
      9 C           1.8461    0.6075   10.7159 C.2     1  UNL1        0.0000
     10 N          -0.4146    1.3899   11.2040 N.am    1  UNL1        0.0000
     11 C          -1.6528    0.9588   10.9032 C.2     1  UNL1        0.0000
     12 C          -2.6656    1.9556   11.3407 C.3     1  UNL1        0.0000
     13 C          -2.0176    4.6390   13.6905 C.2     1  UNL1        0.0000
     14 C          -2.8694    3.8085   12.7321 C.2     1  UNL1        0.0000
     15 C           2.6184   -0.6718   10.6556 C.ar    1  UNL1        0.0000
     16 C          -4.0265    1.9558   11.0735 C.2     1  UNL1        0.0000
     17 H          -4.4422    1.1898   10.4375 H       1  UNL1        0.0000
     18 C          -4.8113    2.9429   11.6536 C.2     1  UNL1        0.0000
     19 H          -5.8751    2.9649   11.4638 H       1  UNL1        0.0000
     20 C           3.5455   -0.8528    9.6358 C.ar    1  UNL1        0.0000
     21 H           3.6686   -0.0712    8.9013 H       1  UNL1        0.0000
     22 C           4.1274   -2.9969   10.5356 C.ar    1  UNL1        0.0000
     23 H           4.7118   -3.9052   10.4872 H       1  UNL1        0.0000
     24 C          -4.2323    3.8856   12.4919 C.2     1  UNL1        0.0000
     25 H          -4.8091    4.6550   12.9794 H       1  UNL1        0.0000
     26 C           2.4687   -1.6505   11.6331 C.ar    1  UNL1        0.0000
     27 H           1.7946   -1.4909   12.4618 H       1  UNL1        0.0000
     28 C           4.2903   -2.0160    9.5710 C.ar    1  UNL1        0.0000
     29 H           5.0025   -2.1573    8.7703 H       1  UNL1        0.0000
     30 C           3.2257   -2.8074   11.5699 C.ar    1  UNL1        0.0000
     31 H           3.1137   -3.5627   12.3344 H       1  UNL1        0.0000
     32 O          -3.1395    1.6948   14.4579 O.2     1  UNL1        0.0000
     33 O           1.7099    5.5740   10.6912 O.2     1  UNL1        0.0000
     34 N          -1.3183    0.4084   13.9800 N.am    1  UNL1        0.0000
     35 H          -0.9038   -0.5200   14.0722 H       1  UNL1        0.0000
     36 O           0.0390    4.2137   11.2554 O.3     1  UNL1        0.0000
     37 O           1.1392   -0.1447   14.5936 O.2     1  UNL1        0.0000
     38 N           1.3623    2.8686   12.8523 N.pl3   1  UNL1        0.0000
     39 C          -2.6179    0.6075   14.2877 C.2     1  UNL1        0.0000
     40 N          -0.3572    1.3899   13.7996 N.am    1  UNL1        0.0000
     41 C           0.8810    0.9587   14.1003 C.2     1  UNL1        0.0000
     42 C           1.8938    1.9555   13.6629 C.3     1  UNL1        0.0000
     43 C           1.2458    4.6390   11.3131 C.2     1  UNL1        0.0000
     44 C           2.0976    3.8085   12.2715 C.2     1  UNL1        0.0000
     45 C          -3.3902   -0.6718   14.3480 C.ar    1  UNL1        0.0000
     46 C           3.2547    1.9558   13.9301 C.2     1  UNL1        0.0000
     47 H           3.6704    1.1898   14.5661 H       1  UNL1        0.0000
     48 C           4.0395    2.9429   13.3500 C.2     1  UNL1        0.0000
     49 H           5.1033    2.9649   13.5398 H       1  UNL1        0.0000
     50 C          -4.3173   -0.8528   15.3677 C.ar    1  UNL1        0.0000
     51 H          -4.4405   -0.0711   16.1023 H       1  UNL1        0.0000
     52 C          -4.8992   -2.9969   14.4680 C.ar    1  UNL1        0.0000
     53 H          -5.4836   -3.9052   14.5163 H       1  UNL1        0.0000
     54 C           3.4605    3.8856   12.5116 C.2     1  UNL1        0.0000
     55 H           4.0373    4.6551   12.0242 H       1  UNL1        0.0000
     56 C          -3.2405   -1.6505   13.3705 C.ar    1  UNL1        0.0000
     57 H          -2.5663   -1.4909   12.5419 H       1  UNL1        0.0000
     58 C          -5.0622   -2.0160   15.4326 C.ar    1  UNL1        0.0000
     59 H          -5.7744   -2.1573   16.2332 H       1  UNL1        0.0000
     60 C          -3.9974   -2.8074   13.4337 C.ar    1  UNL1        0.0000
     61 H          -3.8854   -3.5627   12.6692 H       1  UNL1        0.0000
@<TRIPOS>BOND
     1    29    28    1
     2    21    20    1
     3    28    20   ar
     4    28    22   ar
     5    20    15   ar
     6     7    11    2
     7    17    16    1
     8    23    22    1
     9    22    30   ar
    10     2     9    2
    11    15     9    1
    12    15    26   ar
    13    33    43    2
    14     9     4   am
    15    11    10   am
    16    11    12    1
    17     5     4    1
    18     4    10    1
    19    16    12    1
    20    16    18    2
    21    10     1    1
    22    36    43    1
    23    36     1    1
    24    43    44    1
    25    12     8    1
    26    19    18    1
    27    30    26   ar
    28    30    31    1
    29    26    27    1
    30    18    24    1
    31    55    54    1
    32     8     1    1
    33     8    14    1
    34    44    54    2
    35    44    38    1
    36    24    14    2
    37    24    25    1
    38     1    38    1
    39     1     6    1
    40     1    40    1
    41    54    48    1
    42    57    56    1
    43    61    60    1
    44    14    13    1
    45    38    42    1
    46    48    49    1
    47    48    46    2
    48    56    60   ar
    49    56    45   ar
    50    60    52   ar
    51    42    46    1
    52    42    41    1
    53    13     6    1
    54    13     3    2
    55    40    34    1
    56    40    41   am
    57    46    47    1
    58    34    35    1
    59    34    39   am
    60    41    37    2
    61    39    45    1
    62    39    32    2
    63    45    50   ar
    64    52    53    1
    65    52    58   ar
    66    50    58   ar
    67    50    51    1
    68    58    59    1
