@<TRIPOS>MOLECULE
CSD_code = EGUKIA | q = 1 | S = 0 | Stoichiometry = C24H18CoN4O6(1+) | MND = 6
 53 60 0 0 0
SMALL
GASTEIGER

@<TRIPOS>ATOM
      1 CO          0.7497    7.1761    5.5655 Co.oh   1  UNL1        0.0000
      2 O          -1.1812    4.1775    3.0512 O.3     1  UNL1        0.0000
      3 O          -1.0356    7.1884    4.9364 O.3     1  UNL1        0.0000
      4 O          -2.6256    6.1675    3.7484 O.2     1  UNL1        0.0000
      5 O           2.6810   10.1744    8.0796 O.3     1  UNL1        0.0000
      6 O           2.5352    7.1635    6.1948 O.3     1  UNL1        0.0000
      7 O           4.1252    8.1847    7.3829 O.2     1  UNL1        0.0000
      8 N           0.5955    5.3111    6.0013 N.pl3   1  UNL1        0.0000
      9 N           1.3695    6.6337    3.8291 N.pl3   1  UNL1        0.0000
     10 N           0.9050    9.0410    5.1292 N.pl3   1  UNL1        0.0000
     11 N           0.1295    7.7193    7.3013 N.pl3   1  UNL1        0.0000
     12 C           1.0711    4.7950    7.1384 C.3     1  UNL1        0.0000
     13 C           0.8994    3.4693    7.4819 C.2     1  UNL1        0.0000
     14 C           0.2003    2.6348    6.6189 C.2     1  UNL1        0.0000
     15 C          -0.2734    3.1605    5.4334 C.2     1  UNL1        0.0000
     16 C          -0.0439    4.5024    5.1508 C.2     1  UNL1        0.0000
     17 C          -0.5098    5.0891    3.8452 C.3     1  UNL1        0.0000
     18 C           0.6659    5.7223    3.1506 C.3     1  UNL1        0.0000
     19 C           0.9933    5.3480    1.8521 C.2     1  UNL1        0.0000
     20 C           2.1006    5.9128    1.2510 C.2     1  UNL1        0.0000
     21 C           2.8537    6.8283    1.9753 C.2     1  UNL1        0.0000
     22 C           2.4539    7.1617    3.2536 C.2     1  UNL1        0.0000
     23 C          -1.5178    6.2800    4.2120 C.2     1  UNL1        0.0000
     24 C           0.4316    9.5567    3.9909 C.3     1  UNL1        0.0000
     25 C           0.6089   10.8809    3.6445 C.2     1  UNL1        0.0000
     26 C           1.3109   11.7145    4.5061 C.2     1  UNL1        0.0000
     27 C           1.7812   11.1897    5.6934 C.2     1  UNL1        0.0000
     28 C           1.5463    9.8493    5.9786 C.2     1  UNL1        0.0000
     29 C           2.0095    9.2631    7.2853 C.3     1  UNL1        0.0000
     30 C           0.8322    8.6320    7.9790 C.3     1  UNL1        0.0000
     31 C           0.5023    9.0098    9.2757 C.2     1  UNL1        0.0000
     32 C          -0.6069    8.4476    9.8757 C.2     1  UNL1        0.0000
     33 C          -1.3587    7.5303    9.1525 C.2     1  UNL1        0.0000
     34 C          -0.9561    7.1931    7.8761 C.2     1  UNL1        0.0000
     35 C           3.0175    8.0719    6.9192 C.2     1  UNL1        0.0000
     36 H           1.6211    5.4617    7.7859 H       1  UNL1        0.0000
     37 H          -2.0931    4.5239    2.9374 H       1  UNL1        0.0000
     38 H           1.3077    3.1002    8.4084 H       1  UNL1        0.0000
     39 H           0.0409    1.5959    6.8607 H       1  UNL1        0.0000
     40 H          -0.8019    2.5658    4.7054 H       1  UNL1        0.0000
     41 H           3.5929    9.8278    8.1939 H       1  UNL1        0.0000
     42 H           0.3782    4.6117    1.3596 H       1  UNL1        0.0000
     43 H           2.3798    5.6370    0.2464 H       1  UNL1        0.0000
     44 H           3.7392    7.2787    1.5579 H       1  UNL1        0.0000
     45 H           3.0287    7.8611    3.8425 H       1  UNL1        0.0000
     46 H          -0.1213    8.8909    3.3448 H       1  UNL1        0.0000
     47 H           0.2028   11.2496    2.7169 H       1  UNL1        0.0000
     48 H           1.4752   12.7521    4.2618 H       1  UNL1        0.0000
     49 H           2.3111   11.7840    6.4206 H       1  UNL1        0.0000
     50 H           1.1165    9.7474    9.7675 H       1  UNL1        0.0000
     51 H          -0.8880    8.7262   10.8790 H       1  UNL1        0.0000
     52 H          -2.2457    7.0820    9.5689 H       1  UNL1        0.0000
     53 H          -1.5295    6.4915    7.2883 H       1  UNL1        0.0000
@<TRIPOS>BOND
     1    43    20    1
     2    20    19    2
     3    20    21    1
     4    42    19    1
     5    44    21    1
     6    19    18    1
     7    21    22    2
     8    47    25    1
     9    37     2    1
    10     2    17    1
    11    18     9    1
    12    18    17    1
    13    22     9    1
    14    22    45    1
    15    46    24    1
    16    25    24    1
    17    25    26    2
    18     4    23    2
    19     9     1    1
    20    17    23    1
    21    17    16    1
    22    24    10    1
    23    23     3    1
    24    48    26    1
    25    26    27    1
    26    40    15    1
    27     3     1    1
    28    10     1    1
    29    10    28    1
    30    16    15    2
    31    16     8    1
    32    15    14    1
    33     1     8    1
    34     1     6    1
    35     1    11    1
    36    27    28    2
    37    27    49    1
    38    28    29    1
    39     8    12    1
    40     6    35    1
    41    14    39    1
    42    14    13    2
    43    35    29    1
    44    35     7    2
    45    12    13    1
    46    12    36    1
    47    29    30    1
    48    29     5    1
    49    53    34    1
    50    11    34    1
    51    11    30    1
    52    13    38    1
    53    34    33    2
    54    30    31    1
    55     5    41    1
    56    33    52    1
    57    33    32    1
    58    31    50    1
    59    31    32    2
    60    32    51    1
