@<TRIPOS>MOLECULE
CSD_code = FIQNEB | q = 0 | S = 0 | Stoichiometry = C31H42CoN5O6S | MND = 6
 86 92 0 0 0
SMALL
GASTEIGER

@<TRIPOS>ATOM
      1 CO          4.5641    4.8974   11.6176 Co.oh   1  UNL1        0.0000
      2 S           4.5047    9.0844    9.9737 S.2     1  UNL1        0.0000
      3 C           4.4102    7.5702   10.4058 C.1     1  UNL1        0.0000
      4 N           4.2984    6.4123   10.6013 N.2     1  UNL1        0.0000
      5 O           4.3404    5.8319   13.1909 O.3     1  UNL1        0.0000
      6 C           5.2583    6.3349   13.9306 C.ar    1  UNL1        0.0000
      7 C           4.8392    6.9370   15.1690 C.ar    1  UNL1        0.0000
      8 O           3.4936    6.8861   15.3701 O.3     1  UNL1        0.0000
      9 C           5.7589    7.4953   16.0194 C.ar    1  UNL1        0.0000
     10 H           5.4457    7.9453   16.9486 H       1  UNL1        0.0000
     11 C           7.1258    7.4940   15.7001 C.ar    1  UNL1        0.0000
     12 H           7.8245    7.9405   16.3905 H       1  UNL1        0.0000
     13 C           7.5569    6.9408   14.5310 C.ar    1  UNL1        0.0000
     14 H           8.6067    6.9440   14.2763 H       1  UNL1        0.0000
     15 C           6.6432    6.3571   13.6253 C.ar    1  UNL1        0.0000
     16 C           7.1185    5.8061   12.4092 C.3     1  UNL1        0.0000
     17 H           8.1947    5.8837   12.2383 H       1  UNL1        0.0000
     18 N           6.3949    5.2471   11.5038 N.3     1  UNL1        0.0000
     19 N           4.8485    3.6879    9.8302 N.4     1  UNL1        0.0000
     20 C           7.0047    4.7715   10.2873 C.3     1  UNL1        0.0000
     21 H           8.0782    4.5899   10.4237 H       1  UNL1        0.0000
     22 H           6.8817    5.5363    9.5101 H       1  UNL1        0.0000
     23 C           6.3052    3.4786    9.8782 C.3     1  UNL1        0.0000
     24 H           6.7104    3.1251    8.9245 H       1  UNL1        0.0000
     25 H           6.5031    2.7328   10.6514 H       1  UNL1        0.0000
     26 C           4.1239    2.4085    9.9056 C.3     1  UNL1        0.0000
     27 H           3.0613    2.6342   10.0228 H       1  UNL1        0.0000
     28 H           4.4598    1.8489   10.7782 H       1  UNL1        0.0000
     29 C           4.2943    1.5546    8.6445 C.3     1  UNL1        0.0000
     30 H           5.3437    1.2475    8.5184 H       1  UNL1        0.0000
     31 H           3.6759    0.6584    8.7189 H       1  UNL1        0.0000
     32 O           3.8490    2.2430    7.4989 O.3     1  UNL1        0.0000
     33 C           4.5489    3.4564    7.3451 C.3     1  UNL1        0.0000
     34 H           4.1002    3.9585    6.4863 H       1  UNL1        0.0000
     35 H           5.6051    3.2509    7.1120 H       1  UNL1        0.0000
     36 C           4.4190    4.3502    8.5853 C.3     1  UNL1        0.0000
     37 H           4.9852    5.2687    8.4387 H       1  UNL1        0.0000
     38 H           3.3675    4.6175    8.7053 H       1  UNL1        0.0000
     39 O           5.0644    3.3774   12.5919 O.3     1  UNL1        0.0000
     40 O           6.3535    1.6397   14.0165 O.3     1  UNL1        0.0000
     41 C           4.3392    2.6365   13.3441 C.ar    1  UNL1        0.0000
     42 C           4.9954    1.6523   14.1605 C.ar    1  UNL1        0.0000
     43 C           4.2685    0.8279   14.9805 C.ar    1  UNL1        0.0000
     44 H           4.7601    0.0963   15.6030 H       1  UNL1        0.0000
     45 C           2.8691    0.9205   15.0275 C.ar    1  UNL1        0.0000
     46 H           2.3234    0.2610   15.6844 H       1  UNL1        0.0000
     47 C           2.2138    1.8309   14.2508 C.ar    1  UNL1        0.0000
     48 H           1.1362    1.9024   14.2835 H       1  UNL1        0.0000
     49 C           2.9242    2.7003   13.3948 C.ar    1  UNL1        0.0000
     50 C           2.2055    3.6408   12.6131 C.3     1  UNL1        0.0000
     51 H           1.1204    3.5953   12.7400 H       1  UNL1        0.0000
     52 N           2.6705    4.5077   11.7746 N.3     1  UNL1        0.0000
     53 N           0.3427    7.4177   11.6514 N.3     1  UNL1        0.0000
     54 C           1.6783    5.4010   11.2057 C.3     1  UNL1        0.0000
     55 H           0.7403    4.8652   11.0144 H       1  UNL1        0.0000
     56 H           2.0548    5.8040   10.2670 H       1  UNL1        0.0000
     57 C           1.3875    6.5574   12.1772 C.3     1  UNL1        0.0000
     58 H           1.0471    6.1283   13.1229 H       1  UNL1        0.0000
     59 H           2.3225    7.0980   12.3764 H       1  UNL1        0.0000
     60 C          -0.3755    8.1281   12.6958 C.3     1  UNL1        0.0000
     61 H           0.2816    8.8356   13.2319 H       1  UNL1        0.0000
     62 H          -0.7775    7.4057   13.4102 H       1  UNL1        0.0000
     63 C          -1.5285    8.9050   12.0588 C.3     1  UNL1        0.0000
     64 H          -2.2180    8.1910   11.5821 H       1  UNL1        0.0000
     65 H          -2.0674    9.4843   12.8112 H       1  UNL1        0.0000
     66 O          -1.0643    9.8285   11.1055 O.3     1  UNL1        0.0000
     67 C          -0.3211    9.1713   10.1045 C.3     1  UNL1        0.0000
     68 H           0.0374    9.9494    9.4291 H       1  UNL1        0.0000
     69 H          -0.9756    8.4779    9.5538 H       1  UNL1        0.0000
     70 C           0.8513    8.3894   10.6943 C.3     1  UNL1        0.0000
     71 H           1.3784    7.8707    9.8936 H       1  UNL1        0.0000
     72 H           1.5538    9.0911   11.1737 H       1  UNL1        0.0000
     73 C           2.9546    7.4961   16.5222 C.3     1  UNL1        0.0000
     74 H           3.2241    8.5617   16.5491 H       1  UNL1        0.0000
     75 H           3.3492    7.0130   17.4282 H       1  UNL1        0.0000
     76 C           1.4431    7.3379   16.4584 C.3     1  UNL1        0.0000
     77 H           1.0605    7.8177   15.5618 H       1  UNL1        0.0000
     78 H           0.9836    7.7916   17.3322 H       1  UNL1        0.0000
     79 H           1.1854    6.2829   16.4234 H       1  UNL1        0.0000
     80 C           7.1168    0.8221   14.8757 C.3     1  UNL1        0.0000
     81 H           6.8941   -0.2390   14.6885 H       1  UNL1        0.0000
     82 H           6.8780    1.0486   15.9243 H       1  UNL1        0.0000
     83 C           8.5849    1.1081   14.5993 C.3     1  UNL1        0.0000
     84 H           8.8215    0.8717   13.5654 H       1  UNL1        0.0000
     85 H           9.2103    0.5088   15.2550 H       1  UNL1        0.0000
     86 H           8.7908    2.1612   14.7697 H       1  UNL1        0.0000
@<TRIPOS>BOND
     1    34    33    1
     2    35    33    1
     3    33    32    1
     4    33    36    1
     5    32    29    1
     6    37    36    1
     7    30    29    1
     8    36    38    1
     9    36    19    1
    10    29    31    1
    11    29    26    1
    12    24    23    1
    13    68    67    1
    14    22    20    1
    15    69    67    1
    16    19    23    1
    17    19    26    1
    18    19     1    1
    19    23    20    1
    20    23    25    1
    21    71    70    1
    22    26    27    1
    23    26    28    1
    24     2     3    2
    25    67    70    1
    26    67    66    1
    27    56    54    1
    28    20    21    1
    29    20    18    1
    30     3     4    2
    31     4     1    1
    32    70    72    1
    33    70    53    1
    34    55    54    1
    35    66    63    1
    36    54    52    1
    37    54    57    1
    38    18     1    1
    39    18    16    1
    40    64    63    1
    41     1    52    1
    42     1    39    1
    43     1     5    1
    44    53    57    1
    45    53    60    1
    46    52    50    1
    47    63    60    1
    48    63    65    1
    49    57    59    1
    50    57    58    1
    51    17    16    1
    52    16    15    1
    53    39    41    1
    54    50    51    1
    55    50    49    1
    56    60    61    1
    57    60    62    1
    58     5     6    1
    59    41    49   ar
    60    41    42   ar
    61    49    47   ar
    62    84    83    1
    63    15     6   ar
    64    15    13   ar
    65     6     7   ar
    66    40    42    1
    67    40    80    1
    68    42    43   ar
    69    47    48    1
    70    47    45   ar
    71    14    13    1
    72    13    11   ar
    73    83    86    1
    74    83    80    1
    75    83    85    1
    76    81    80    1
    77    80    82    1
    78    43    45   ar
    79    43    44    1
    80    45    46    1
    81     7     8    1
    82     7     9   ar
    83     8    73    1
    84    77    76    1
    85    11     9   ar
    86    11    12    1
    87     9    10    1
    88    79    76    1
    89    76    73    1
    90    76    78    1
    91    73    74    1
    92    73    75    1
