@<TRIPOS>MOLECULE
CSD_code = FIRPEE | q = 1 | S = 0 | Stoichiometry = C28H24CoN6O4(1+) | MND = 6
 63 70 0 0 0
SMALL
GASTEIGER

@<TRIPOS>ATOM
      1 CO          8.7909    2.6696    6.8281 Co.oh   1  UNL1        0.0000
      2 N          10.0807    2.7823    5.4263 N.pl3   1  UNL1        0.0000
      3 N           8.7001    4.4677    6.6623 N.pl3   1  UNL1        0.0000
      4 N           7.8718    5.0986    7.4555 N.2     1  UNL1        0.0000
      5 N          10.1232    2.5776    8.1924 N.pl3   1  UNL1        0.0000
      6 N           8.7325    0.8708    6.9985 N.pl3   1  UNL1        0.0000
      7 N           7.8899    0.2262    6.2331 N.2     1  UNL1        0.0000
      8 O           7.4941    2.9687    8.1562 O.2     1  UNL1        0.0000
      9 O           3.5718    5.9974   12.0489 O.3     1  UNL1        0.0000
     10 O           7.4589    2.3471    5.5361 O.2     1  UNL1        0.0000
     11 O           3.5128   -0.9900    1.8542 O.3     1  UNL1        0.0000
     12 C          10.7641    1.8258    4.8063 C.3     1  UNL1        0.0000
     13 H          10.6373    0.8161    5.1726 H       1  UNL1        0.0000
     14 C          11.6032    2.0798    3.7365 C.2     1  UNL1        0.0000
     15 H          12.1329    1.2680    3.2669 H       1  UNL1        0.0000
     16 C          11.7406    3.3879    3.2842 C.2     1  UNL1        0.0000
     17 H          12.3850    3.6138    2.4492 H       1  UNL1        0.0000
     18 C          11.0362    4.3891    3.9196 C.2     1  UNL1        0.0000
     19 H          11.1074    5.4165    3.6015 H       1  UNL1        0.0000
     20 C          10.2028    4.0649    4.9944 C.2     1  UNL1        0.0000
     21 C           9.4076    5.0080    5.7176 C.3     1  UNL1        0.0000
     22 H           9.3743    6.0640    5.4900 H       1  UNL1        0.0000
     23 C           7.2447    4.2180    8.2466 C.2     1  UNL1        0.0000
     24 C           6.2885    4.7112    9.2170 C.ar    1  UNL1        0.0000
     25 C           6.0302    6.0799    9.3343 C.ar    1  UNL1        0.0000
     26 H           6.5468    6.7641    8.6808 H       1  UNL1        0.0000
     27 C           5.1307    6.5477   10.2659 C.ar    1  UNL1        0.0000
     28 H           4.9493    7.6082   10.3365 H       1  UNL1        0.0000
     29 C           4.4613    5.6522   11.1079 C.ar    1  UNL1        0.0000
     30 C           4.7180    4.2765   10.9860 C.ar    1  UNL1        0.0000
     31 H           4.1898    3.6027   11.6414 H       1  UNL1        0.0000
     32 C           5.6142    3.8143   10.0581 C.ar    1  UNL1        0.0000
     33 H           5.8125    2.7581    9.9605 H       1  UNL1        0.0000
     34 C           3.2526    7.3596   12.2445 C.3     1  UNL1        0.0000
     35 H           4.1320    7.9354   12.5470 H       1  UNL1        0.0000
     36 H           2.5179    7.3747   13.0472 H       1  UNL1        0.0000
     37 H           2.8152    7.8003   11.3442 H       1  UNL1        0.0000
     38 C          10.8099    3.5448    8.7922 C.3     1  UNL1        0.0000
     39 H          10.6575    4.5521    8.4294 H       1  UNL1        0.0000
     40 C          11.6829    3.3043    9.8375 C.2     1  UNL1        0.0000
     41 H          12.2136    4.1243   10.2916 H       1  UNL1        0.0000
     42 C          11.8529    1.9988   10.2864 C.2     1  UNL1        0.0000
     43 H          12.5246    1.7833   11.1024 H       1  UNL1        0.0000
     44 C          11.1453    0.9868    9.6723 C.2     1  UNL1        0.0000
     45 H          11.2406   -0.0393    9.9886 H       1  UNL1        0.0000
     46 C          10.2763    1.2976    8.6219 C.2     1  UNL1        0.0000
     47 C           9.4740    0.3423    7.9237 C.3     1  UNL1        0.0000
     48 H           9.4600   -0.7133    8.1545 H       1  UNL1        0.0000
     49 C           7.2255    1.0935    5.4586 C.2     1  UNL1        0.0000
     50 C           6.2470    0.5753    4.5241 C.ar    1  UNL1        0.0000
     51 C           6.0115   -0.8042    4.4291 C.ar    1  UNL1        0.0000
     52 H           6.5619   -1.4714    5.0718 H       1  UNL1        0.0000
     53 C           5.0950   -1.2857    3.5316 C.ar    1  UNL1        0.0000
     54 H           4.8990   -2.3421    3.4416 H       1  UNL1        0.0000
     55 C           4.3788   -0.4110    2.6971 C.ar    1  UNL1        0.0000
     56 C           4.6083    0.9656    2.7960 C.ar    1  UNL1        0.0000
     57 H           4.0693    1.6601    2.1717 H       1  UNL1        0.0000
     58 C           5.5301    1.4462    3.6990 C.ar    1  UNL1        0.0000
     59 H           5.7104    2.5074    3.7803 H       1  UNL1        0.0000
     60 C           2.7454   -0.1905    0.9785 C.3     1  UNL1        0.0000
     61 H           2.0985    0.4972    1.5299 H       1  UNL1        0.0000
     62 H           2.1311   -0.8866    0.4107 H       1  UNL1        0.0000
     63 H           3.3829    0.3734    0.2918 H       1  UNL1        0.0000
@<TRIPOS>BOND
     1    63    60    1
     2    62    60    1
     3    60    61    1
     4    60    11    1
     5    11    55    1
     6    57    56    1
     7    17    16    1
     8    55    56   ar
     9    55    53   ar
    10    56    58   ar
    11    15    14    1
    12    16    14    2
    13    16    18    1
    14    54    53    1
    15    53    51   ar
    16    19    18    1
    17    58    59    1
    18    58    50   ar
    19    14    12    1
    20    18    20    2
    21    51    50   ar
    22    51    52    1
    23    50    49    1
    24    12    13    1
    25    12     2    1
    26    20     2    1
    27    20    21    1
    28     2     1    1
    29    49    10    1
    30    49     7    2
    31    22    21    1
    32    10     1    1
    33    21     3    1
    34     7     6    1
    35     3     1    1
    36     3     4    1
    37     1     6    1
    38     1     8    1
    39     1     5    1
    40     6    47    1
    41     4    23    2
    42    47    48    1
    43    47    46    1
    44     8    23    1
    45     5    46    1
    46     5    38    1
    47    23    24    1
    48    39    38    1
    49    46    44    2
    50    26    25    1
    51    38    40    1
    52    24    25   ar
    53    24    32   ar
    54    25    27   ar
    55    44    45    1
    56    44    42    1
    57    40    42    2
    58    40    41    1
    59    33    32    1
    60    32    30   ar
    61    27    28    1
    62    27    29   ar
    63    42    43    1
    64    30    29   ar
    65    30    31    1
    66    29     9    1
    67    37    34    1
    68     9    34    1
    69    34    35    1
    70    34    36    1
