@<TRIPOS>MOLECULE
CSD_code = FOPLIG | q = 1 | S = 0 | Stoichiometry = C22H30CoN4O2(1+) | MND = 6
 59 64 0 0 0
SMALL
GASTEIGER

@<TRIPOS>ATOM
      1 CO         13.9484    6.9230    8.9289 Co.oh   1  UNL1        0.0000
      2 C          12.3742    4.6589    9.3668 C.ar    1  UNL1        0.0000
      3 O          12.4191    5.9506    9.4795 O.3     1  UNL1        0.0000
      4 C          11.7018    3.9010   10.3499 C.ar    1  UNL1        0.0000
      5 H          11.2101    4.4370   11.1478 H       1  UNL1        0.0000
      6 C          11.6874    2.5291   10.3071 C.ar    1  UNL1        0.0000
      7 H          11.1813    1.9752   11.0827 H       1  UNL1        0.0000
      8 C          12.3442    1.8485    9.2833 C.ar    1  UNL1        0.0000
      9 H          12.3678    0.7709    9.2774 H       1  UNL1        0.0000
     10 C          12.9420    2.5592    8.2705 C.ar    1  UNL1        0.0000
     11 H          13.4461    2.0232    7.4805 H       1  UNL1        0.0000
     12 C          12.9496    3.9617    8.2672 C.ar    1  UNL1        0.0000
     13 C          13.4175    4.7280    7.1309 C.3     1  UNL1        0.0000
     14 C          14.1699    6.7358    6.0989 C.3     1  UNL1        0.0000
     15 H          14.4315    6.1129    5.2429 H       1  UNL1        0.0000
     16 H          15.0331    7.3558    6.3449 H       1  UNL1        0.0000
     17 N          13.8626    5.9350    7.2687 N.3     1  UNL1        0.0000
     18 C          12.9809    7.6395    5.7530 C.3     1  UNL1        0.0000
     19 H          13.1418    8.0849    4.7713 H       1  UNL1        0.0000
     20 H          12.0657    7.0436    5.7120 H       1  UNL1        0.0000
     21 C          12.8181    8.7595    6.7749 C.3     1  UNL1        0.0000
     22 H          13.7062    9.3961    6.7624 H       1  UNL1        0.0000
     23 H          11.9522    9.3751    6.5029 H       1  UNL1        0.0000
     24 N          12.6461    8.2275    8.1362 N.4     1  UNL1        0.0000
     25 H          11.7610    7.7152    8.1794 H       1  UNL1        0.0000
     26 H          12.5519    9.0181    8.7747 H       1  UNL1        0.0000
     27 C          13.2760    4.0797    5.7808 C.3     1  UNL1        0.0000
     28 H          12.7553    4.7369    5.0881 H       1  UNL1        0.0000
     29 H          12.7080    3.1591    5.8540 H       1  UNL1        0.0000
     30 H          14.2575    3.8533    5.3636 H       1  UNL1        0.0000
     31 C          15.5226    9.1872    8.4910 C.ar    1  UNL1        0.0000
     32 O          15.4777    7.8955    8.3783 O.3     1  UNL1        0.0000
     33 C          16.1950    9.9452    7.5079 C.ar    1  UNL1        0.0000
     34 H          16.6867    9.4091    6.7100 H       1  UNL1        0.0000
     35 C          16.2093   11.3170    7.5508 C.ar    1  UNL1        0.0000
     36 H          16.7154   11.8710    6.7751 H       1  UNL1        0.0000
     37 C          15.5525   11.9976    8.5746 C.ar    1  UNL1        0.0000
     38 H          15.5289   13.0752    8.5805 H       1  UNL1        0.0000
     39 C          14.9547   11.2868    9.5873 C.ar    1  UNL1        0.0000
     40 H          14.4506   11.8228   10.3774 H       1  UNL1        0.0000
     41 C          14.9471    9.8843    9.5907 C.ar    1  UNL1        0.0000
     42 C          14.4793    9.1180   10.7270 C.3     1  UNL1        0.0000
     43 C          13.7269    7.1102   11.7589 C.3     1  UNL1        0.0000
     44 H          13.4654    7.7331   12.6149 H       1  UNL1        0.0000
     45 H          12.8638    6.4902   11.5129 H       1  UNL1        0.0000
     46 N          14.0343    7.9110   10.5891 N.3     1  UNL1        0.0000
     47 C          14.9160    6.2065   12.1047 C.3     1  UNL1        0.0000
     48 H          14.7551    5.7611   13.0864 H       1  UNL1        0.0000
     49 H          15.8312    6.8024   12.1457 H       1  UNL1        0.0000
     50 C          15.0787    5.0865   11.0828 C.3     1  UNL1        0.0000
     51 H          14.1907    4.4499   11.0953 H       1  UNL1        0.0000
     52 H          15.9446    4.4709   11.3548 H       1  UNL1        0.0000
     53 N          15.2507    5.6186    9.7216 N.4     1  UNL1        0.0000
     54 H          16.1358    6.1309    9.6783 H       1  UNL1        0.0000
     55 H          15.3450    4.8279    9.0830 H       1  UNL1        0.0000
     56 C          14.6208    9.7662   12.0771 C.3     1  UNL1        0.0000
     57 H          15.1416    9.1091   12.7697 H       1  UNL1        0.0000
     58 H          15.1888   10.6869   12.0038 H       1  UNL1        0.0000
     59 H          13.6394    9.9927   12.4943 H       1  UNL1        0.0000
@<TRIPOS>BOND
     1    19    18    1
     2    28    27    1
     3    15    14    1
     4    30    27    1
     5    20    18    1
     6    18    14    1
     7    18    21    1
     8    27    29    1
     9    27    13    1
    10    14    16    1
    11    14    17    1
    12    23    21    1
    13    34    33    1
    14    22    21    1
    15    21    24    1
    16    36    35    1
    17    13    17    1
    18    13    12    1
    19    17     1    1
    20    11    10    1
    21    33    35   ar
    22    33    31   ar
    23    35    37   ar
    24    24    25    1
    25    24    26    1
    26    24     1    1
    27    12    10   ar
    28    12     2   ar
    29    10     8   ar
    30    32    31    1
    31    32     1    1
    32    31    41   ar
    33    37    38    1
    34    37    39   ar
    35     1     3    1
    36     1    53    1
    37     1    46    1
    38    55    53    1
    39     9     8    1
    40     8     6   ar
    41     2     3    1
    42     2     4   ar
    43    39    41   ar
    44    39    40    1
    45    41    42    1
    46    54    53    1
    47    53    50    1
    48     6     4   ar
    49     6     7    1
    50     4     5    1
    51    46    42    1
    52    46    43    1
    53    42    56    1
    54    50    51    1
    55    50    52    1
    56    50    47    1
    57    45    43    1
    58    43    47    1
    59    43    44    1
    60    58    56    1
    61    56    59    1
    62    56    57    1
    63    47    49    1
    64    47    48    1
