@<TRIPOS>MOLECULE
CSD_code = GAPZEC | q = 1 | S = 0 | Stoichiometry = C6H18CoN4O2(1+) | MND = 6
 31 34 0 0 0
SMALL
GASTEIGER

@<TRIPOS>ATOM
      1 CO          5.5022    5.5698    2.2345 Co.oh   1  UNL1        0.0000
      2 O           6.2597    5.5693    3.9235 O.3     1  UNL1        0.0000
      3 N           6.8968    4.2172    1.7971 N.4     1  UNL1        0.0000
      4 N           6.8965    6.9215    1.7970 N.4     1  UNL1        0.0000
      5 C           7.9402    4.3057    2.8397 C.3     1  UNL1        0.0000
      6 C           7.6027    5.5695    3.6696 C.3     1  UNL1        0.0000
      7 C           7.9396    6.8335    2.8400 C.3     1  UNL1        0.0000
      8 H           7.2762    4.4377    0.8772 H       1  UNL1        0.0000
      9 H           6.5543    3.2620    1.7194 H       1  UNL1        0.0000
     10 H           8.9444    4.3533    2.4156 H       1  UNL1        0.0000
     11 H           7.8707    3.4410    3.4997 H       1  UNL1        0.0000
     12 H           8.1705    5.5694    4.6110 H       1  UNL1        0.0000
     13 H           8.9440    6.7867    2.4160 H       1  UNL1        0.0000
     14 H           7.8693    7.6980    3.5000 H       1  UNL1        0.0000
     15 H           7.2757    6.6987    0.8774 H       1  UNL1        0.0000
     16 H           6.5562    7.8774    1.7169 H       1  UNL1        0.0000
     17 O           4.7446    5.5693    0.5456 O.3     1  UNL1        0.0000
     18 N           4.1075    4.2172    2.6720 N.4     1  UNL1        0.0000
     19 N           4.1078    6.9215    2.6720 N.4     1  UNL1        0.0000
     20 C           3.4016    5.5695    0.7994 C.3     1  UNL1        0.0000
     21 C           3.0641    4.3057    1.6293 C.3     1  UNL1        0.0000
     22 H           3.7281    4.4377    3.5919 H       1  UNL1        0.0000
     23 H           4.4499    3.2620    2.7497 H       1  UNL1        0.0000
     24 C           3.0647    6.8335    1.6291 C.3     1  UNL1        0.0000
     25 H           3.7287    6.6987    3.5916 H       1  UNL1        0.0000
     26 H           4.4482    7.8774    2.7521 H       1  UNL1        0.0000
     27 H           2.8338    5.5695   -0.1419 H       1  UNL1        0.0000
     28 H           2.0599    4.3533    2.0535 H       1  UNL1        0.0000
     29 H           3.1336    3.4411    0.9693 H       1  UNL1        0.0000
     30 H           2.0604    6.7867    2.0531 H       1  UNL1        0.0000
     31 H           3.1350    7.6980    0.9690 H       1  UNL1        0.0000
@<TRIPOS>BOND
     1    27    20    1
     2    17    20    1
     3    17     1    1
     4    20    24    1
     5    20    21    1
     6     8     3    1
     7    15     4    1
     8    31    24    1
     9    29    21    1
    10    24    30    1
    11    24    19    1
    12    21    28    1
    13    21    18    1
    14    16     4    1
    15     9     3    1
    16     4     1    1
    17     4     7    1
    18     3     1    1
    19     3     5    1
    20     1    18    1
    21     1    19    1
    22     1     2    1
    23    10     5    1
    24    13     7    1
    25    18    23    1
    26    18    22    1
    27    19    26    1
    28    19    25    1
    29     5    11    1
    30     5     6    1
    31     7    14    1
    32     7     6    1
    33     6     2    1
    34     6    12    1
