@<TRIPOS>MOLECULE
CSD_code = GEMJOY | q = 1 | S = 0 | Stoichiometry = C16H18CoN8O2(1+) | MND = 6
 45 50 0 0 0
SMALL
GASTEIGER

@<TRIPOS>ATOM
      1 CO          7.5360    7.4647   10.5128 Co.oh   1  UNL1        0.0000
      2 O           8.8883    6.2115   10.6870 O.3     1  UNL1        0.0000
      3 N           6.8147    8.4962    8.1380 N.3     1  UNL1        0.0000
      4 H           6.6873    8.5207    7.1319 H       1  UNL1        0.0000
      5 N           7.7428    7.6406    8.6743 N.3     1  UNL1        0.0000
      6 N           6.1169    8.7684   10.2595 N.3     1  UNL1        0.0000
      7 H           5.4452    9.1732   10.8988 H       1  UNL1        0.0000
      8 N           4.9505    9.8348    8.5155 N.3     1  UNL1        0.0000
      9 H           4.2225   10.1584    9.1282 H       1  UNL1        0.0000
     10 H           4.7764    9.8969    7.5281 H       1  UNL1        0.0000
     11 C           5.9169    9.0267    9.0042 C.3     1  UNL1        0.0000
     12 C           9.5948    5.6961    9.7367 C.ar    1  UNL1        0.0000
     13 C          10.5626    4.7238   10.0903 C.ar    1  UNL1        0.0000
     14 H          10.6397    4.4614   11.1341 H       1  UNL1        0.0000
     15 C          11.3649    4.1344    9.1510 C.ar    1  UNL1        0.0000
     16 H          12.0910    3.3965    9.4571 H       1  UNL1        0.0000
     17 C          11.2538    4.4735    7.7973 C.ar    1  UNL1        0.0000
     18 H          11.8914    4.0000    7.0684 H       1  UNL1        0.0000
     19 C          10.3276    5.4033    7.4141 C.ar    1  UNL1        0.0000
     20 H          10.2266    5.6719    6.3724 H       1  UNL1        0.0000
     21 C           9.4862    6.0362    8.3538 C.ar    1  UNL1        0.0000
     22 C           8.5295    6.9737    7.8960 C.3     1  UNL1        0.0000
     23 H           8.4603    7.1300    6.8190 H       1  UNL1        0.0000
     24 O           6.3069    6.1303   10.1409 O.3     1  UNL1        0.0000
     25 N           8.1736    8.1878   13.0217 N.3     1  UNL1        0.0000
     26 H           8.3051    8.0718   14.0209 H       1  UNL1        0.0000
     27 N           7.3268    7.3395   12.3553 N.3     1  UNL1        0.0000
     28 N           8.8275    8.8430   10.9712 N.3     1  UNL1        0.0000
     29 H           9.4535    9.4015   10.4054 H       1  UNL1        0.0000
     30 N           9.9004    9.7382   12.8650 N.3     1  UNL1        0.0000
     31 H          10.5902   10.2182   12.3138 H       1  UNL1        0.0000
     32 H          10.0748    9.6662   13.8517 H       1  UNL1        0.0000
     33 C           9.0111    8.9259   12.2525 C.3     1  UNL1        0.0000
     34 C           5.6592    5.4123   10.9969 C.ar    1  UNL1        0.0000
     35 C           4.7853    4.4176   10.4931 C.ar    1  UNL1        0.0000
     36 H           4.7259    4.3104    9.4210 H       1  UNL1        0.0000
     37 C           4.0492    3.6194   11.3263 C.ar    1  UNL1        0.0000
     38 H           3.3940    2.8710   10.9067 H       1  UNL1        0.0000
     39 C           4.1375    3.7584   12.7165 C.ar    1  UNL1        0.0000
     40 H           3.5529    3.1217   13.3606 H       1  UNL1        0.0000
     41 C           4.9743    4.7028   13.2430 C.ar    1  UNL1        0.0000
     42 H           5.0569    4.8187   14.3140 H       1  UNL1        0.0000
     43 C           5.7452    5.5476   12.4161 C.ar    1  UNL1        0.0000
     44 C           6.6122    6.4911   13.0178 C.3     1  UNL1        0.0000
     45 H           6.6740    6.4882   14.1065 H       1  UNL1        0.0000
@<TRIPOS>BOND
     1    20    19    1
     2    23    22    1
     3    18    17    1
     4     4     3    1
     5    19    17   ar
     6    19    21   ar
     7    10     8    1
     8    17    15   ar
     9    22    21    1
    10    22     5    1
    11     3     5    1
    12     3    11    1
    13    21    12   ar
    14     8    11    1
    15     8     9    1
    16     5     1    1
    17    11     6    1
    18    15    16    1
    19    15    13   ar
    20    36    35    1
    21    12    13   ar
    22    12     2    1
    23    13    14    1
    24    24     1    1
    25    24    34    1
    26     6     1    1
    27     6     7    1
    28    29    28    1
    29    35    34   ar
    30    35    37   ar
    31     1     2    1
    32     1    28    1
    33     1    27    1
    34    38    37    1
    35    28    33    1
    36    34    43   ar
    37    37    39   ar
    38    33    30    1
    39    33    25    1
    40    31    30    1
    41    27    44    1
    42    27    25    1
    43    43    44    1
    44    43    41   ar
    45    39    41   ar
    46    39    40    1
    47    30    32    1
    48    44    45    1
    49    25    26    1
    50    41    42    1
