@<TRIPOS>MOLECULE
CSD_code = GIXFEZ | q = 1 | S = 0 | Stoichiometry = C26H35Br2Cl2CoN7O2(1+) | MND = 6
 75 79 0 0 0
SMALL
GASTEIGER

@<TRIPOS>ATOM
      1 CO          4.6906   18.1696   17.3980 Co.oh   1  UNL1        0.0000
      2 BR          6.5579   21.5018   20.0635 Br      1  UNL1        0.0000
      3 BR          8.5847   15.5387   17.3702 Br      1  UNL1        0.0000
      4 CL         10.4653   22.3243   16.2040 Cl      1  UNL1        0.0000
      5 CL          7.9945   14.7499   22.8041 Cl      1  UNL1        0.0000
      6 O           5.6576   19.6315   18.0644 O.3     1  UNL1        0.0000
      7 O           6.1494   17.0487   17.7663 O.3     1  UNL1        0.0000
      8 N           5.5697   18.2825   15.6154 N.3     1  UNL1        0.0000
      9 N           6.4324   15.2336   13.5901 N.4     1  UNL1        0.0000
     10 N           4.0083   18.0686   19.1314 N.3     1  UNL1        0.0000
     11 N           3.0145   19.4348   16.9644 N.4     1  UNL1        0.0000
     12 N           3.6544   16.7079   16.9176 N.2     1  UNL1        0.0000
     13 N           3.8958   15.5640   16.9263 N.2     1  UNL1        0.0000
     14 N           4.0384   14.4410   16.8220 N.2     1  UNL1        0.0000
     15 C           7.2519   19.9168   16.3086 C.ar    1  UNL1        0.0000
     16 C           6.6995   20.1823   17.5956 C.ar    1  UNL1        0.0000
     17 C           7.3690   21.1585   18.3886 C.ar    1  UNL1        0.0000
     18 C           8.4977   21.8066   17.9810 C.ar    1  UNL1        0.0000
     19 H           8.9787   22.5362   18.6137 H       1  UNL1        0.0000
     20 C           9.0319   21.5080   16.7156 C.ar    1  UNL1        0.0000
     21 C           8.4241   20.5921   15.8996 C.ar    1  UNL1        0.0000
     22 H           8.8424   20.3791   14.9283 H       1  UNL1        0.0000
     23 C           6.6548   18.9784   15.4386 C.3     1  UNL1        0.0000
     24 H           7.1904   18.8523   14.4936 H       1  UNL1        0.0000
     25 C           5.3123   17.3080   14.5619 C.3     1  UNL1        0.0000
     26 H           5.5444   17.7550   13.5835 H       1  UNL1        0.0000
     27 H           4.2559   17.0422   14.5930 H       1  UNL1        0.0000
     28 C           6.2062   16.0754   14.7901 C.3     1  UNL1        0.0000
     29 H           7.1793   16.4284   15.1371 H       1  UNL1        0.0000
     30 H           5.7959   15.4457   15.5775 H       1  UNL1        0.0000
     31 C           5.1762   14.6626   13.0095 C.3     1  UNL1        0.0000
     32 H           4.4604   15.4805   12.9220 H       1  UNL1        0.0000
     33 H           5.4102   14.3116   12.0025 H       1  UNL1        0.0000
     34 C           4.5661   13.5291   13.8156 C.3     1  UNL1        0.0000
     35 H           3.5957   13.2952   13.3862 H       1  UNL1        0.0000
     36 H           4.4048   13.7922   14.8602 H       1  UNL1        0.0000
     37 H           5.1675   12.6268   13.7686 H       1  UNL1        0.0000
     38 C           7.4637   14.1993   13.8928 C.3     1  UNL1        0.0000
     39 H           8.3093   14.7012   14.3670 H       1  UNL1        0.0000
     40 H           7.0434   13.5076   14.6212 H       1  UNL1        0.0000
     41 C           7.9342   13.4682   12.6482 C.3     1  UNL1        0.0000
     42 H           8.7639   12.8228   12.9210 H       1  UNL1        0.0000
     43 H           8.2922   14.1637   11.8920 H       1  UNL1        0.0000
     44 H           7.1598   12.8415   12.2161 H       1  UNL1        0.0000
     45 C           5.7709   16.7468   20.1245 C.ar    1  UNL1        0.0000
     46 C           6.4858   16.5687   18.9099 C.ar    1  UNL1        0.0000
     47 C           7.6613   15.7869   18.9938 C.ar    1  UNL1        0.0000
     48 C           8.1320   15.2331   20.1520 C.ar    1  UNL1        0.0000
     49 H           9.0396   14.6493   20.1617 H       1  UNL1        0.0000
     50 C           7.4114   15.4392   21.3329 C.ar    1  UNL1        0.0000
     51 C           6.2525   16.1787   21.3162 C.ar    1  UNL1        0.0000
     52 H           5.7007   16.3307   22.2303 H       1  UNL1        0.0000
     53 C           4.5672   17.5093   20.1431 C.3     1  UNL1        0.0000
     54 H           4.0953   17.6144   21.1203 H       1  UNL1        0.0000
     55 C           2.8280   18.8750   19.3528 C.3     1  UNL1        0.0000
     56 H           3.1426   19.8549   19.7292 H       1  UNL1        0.0000
     57 H           2.1753   18.4156   20.1031 H       1  UNL1        0.0000
     58 C           2.0867   19.0150   18.0317 C.3     1  UNL1        0.0000
     59 H           1.2632   19.7280   18.1465 H       1  UNL1        0.0000
     60 H           1.6794   18.0397   17.7582 H       1  UNL1        0.0000
     61 C           2.4152   19.1328   15.6481 C.3     1  UNL1        0.0000
     62 H           2.2645   18.0526   15.6064 H       1  UNL1        0.0000
     63 H           3.1424   19.4046   14.8829 H       1  UNL1        0.0000
     64 C           1.0832   19.8181   15.3433 C.3     1  UNL1        0.0000
     65 H           0.3085   19.5212   16.0440 H       1  UNL1        0.0000
     66 H           0.7628   19.5162   14.3494 H       1  UNL1        0.0000
     67 H           1.1662   20.9006   15.3493 H       1  UNL1        0.0000
     68 C           3.2666   20.8872   17.1107 C.3     1  UNL1        0.0000
     69 H           2.3076   21.4053   17.2324 H       1  UNL1        0.0000
     70 H           3.8395   21.0329   18.0265 H       1  UNL1        0.0000
     71 C           4.0288   21.5341   15.9619 C.3     1  UNL1        0.0000
     72 H           4.9198   20.9670   15.7113 H       1  UNL1        0.0000
     73 H           4.3394   22.5293   16.2711 H       1  UNL1        0.0000
     74 H           3.4163   21.6409   15.0706 H       1  UNL1        0.0000
     75 H           6.8303   15.8390   12.8637 H       1  UNL1        0.0000
@<TRIPOS>BOND
     1    43    41    1
     2    33    31    1
     3    44    41    1
     4    41    42    1
     5    41    38    1
     6    75     9    1
     7    32    31    1
     8    31     9    1
     9    31    34    1
    10    35    34    1
    11    26    25    1
    12     9    38    1
    13     9    28    1
    14    37    34    1
    15    34    36    1
    16    38    39    1
    17    38    40    1
    18    66    64    1
    19    24    23    1
    20    25    27    1
    21    25    28    1
    22    25     8    1
    23    28    29    1
    24    28    30    1
    25    63    61    1
    26    22    21    1
    27    74    71    1
    28    64    67    1
    29    64    61    1
    30    64    65    1
    31    23     8    1
    32    23    15    1
    33    62    61    1
    34     8     1    1
    35    61    11    1
    36    72    71    1
    37    21    15   ar
    38    21    20   ar
    39    71    73    1
    40    71    68    1
    41     4    20    1
    42    15    16   ar
    43    20    18   ar
    44    14    13    2
    45    12    13    2
    46    12     1    1
    47    11    68    1
    48    11     1    1
    49    11    58    1
    50    68    69    1
    51    68    70    1
    52     3    47    1
    53     1     7    1
    54     1     6    1
    55     1    10    1
    56    16     6    1
    57    16    17   ar
    58    60    58    1
    59     7    46    1
    60    18    17   ar
    61    18    19    1
    62    58    59    1
    63    58    55    1
    64    17     2    1
    65    46    47   ar
    66    46    45   ar
    67    47    48   ar
    68    10    55    1
    69    10    53    1
    70    55    56    1
    71    55    57    1
    72    45    53    1
    73    45    51   ar
    74    53    54    1
    75    48    49    1
    76    48    50   ar
    77    51    50   ar
    78    51    52    1
    79    50     5    1
