@<TRIPOS>MOLECULE
CSD_code = GOPTOX | q = 1 | S = 0 | Stoichiometry = C36H26Br2CoN6O2(1+) | MND = 6
 73 82 0 0 0
SMALL
GASTEIGER

@<TRIPOS>ATOM
      1 CO          2.8528    4.4523    1.3962 Co.oh   1  UNL1        0.0000
      2 BR         -2.4907   -1.7710   -5.5248 Br      1  UNL1        0.0000
      3 BR         -6.1745    7.6322    6.6136 Br      1  UNL1        0.0000
      4 O           1.3937    4.4067    2.5757 O.2     1  UNL1        0.0000
      5 N           2.8450    1.8030    1.0432 N.2     1  UNL1        0.0000
      6 N           3.3650    2.7628    1.7887 N.pl3   1  UNL1        0.0000
      7 O           1.8380    3.5925    0.0689 O.2     1  UNL1        0.0000
      8 N           2.1964    6.0899    0.9974 N.pl3   1  UNL1        0.0000
      9 C           0.4313    1.9476   -1.6910 C.ar    1  UNL1        0.0000
     10 H           0.2536    3.0127   -1.7202 H       1  UNL1        0.0000
     11 C          -0.2513    1.1032   -2.5804 C.ar    1  UNL1        0.0000
     12 C          -2.3315    7.0615    3.9954 C.ar    1  UNL1        0.0000
     13 C          -4.1943    8.4246    4.7153 C.ar    1  UNL1        0.0000
     14 H          -4.7635    9.3404    4.6834 H       1  UNL1        0.0000
     15 C          -0.6896   -1.1479   -3.4153 C.ar    1  UNL1        0.0000
     16 H          -0.5092   -2.2114   -3.3770 H       1  UNL1        0.0000
     17 C          -0.4711    5.6902    3.2841 C.ar    1  UNL1        0.0000
     18 C          -2.7676    6.0124    4.8528 C.ar    1  UNL1        0.0000
     19 C           4.2524    6.1265    3.3618 C.3     1  UNL1        0.0000
     20 H           3.8199    6.9816    2.8604 H       1  UNL1        0.0000
     21 C          -0.9082    4.6499    4.1367 C.ar    1  UNL1        0.0000
     22 H          -0.3380    3.7342    4.1621 H       1  UNL1        0.0000
     23 C           3.9122    6.0691   -0.4946 C.2     1  UNL1        0.0000
     24 C           2.0220    2.3288    0.1427 C.2     1  UNL1        0.0000
     25 C           2.2728    8.0799   -0.4524 C.3     1  UNL1        0.0000
     26 H           3.0413    8.8448   -0.3458 H       1  UNL1        0.0000
     27 H           1.3977    8.3649    0.1257 H       1  UNL1        0.0000
     28 H           1.9980    8.0155   -1.5044 H       1  UNL1        0.0000
     29 N           1.1078    6.4620    1.6487 N.2     1  UNL1        0.0000
     30 N           4.1701    4.8698    0.0878 N.pl3   1  UNL1        0.0000
     31 C          -1.8236    0.7600   -4.3844 C.ar    1  UNL1        0.0000
     32 H          -2.5277    1.1373   -5.1095 H       1  UNL1        0.0000
     33 C           0.7283    5.4937    2.4767 C.2     1  UNL1        0.0000
     34 C          -1.5732   -0.6216   -4.3200 C.ar    1  UNL1        0.0000
     35 C           2.7643    6.7625    0.0408 C.2     1  UNL1        0.0000
     36 C          -0.0085   -0.2978   -2.5247 C.ar    1  UNL1        0.0000
     37 C           5.1928    4.1446   -0.3519 C.2     1  UNL1        0.0000
     38 H           5.3610    3.1920    0.1315 H       1  UNL1        0.0000
     39 C          -3.0752    8.2632    3.9512 C.ar    1  UNL1        0.0000
     40 H          -2.7428    9.0567    3.2990 H       1  UNL1        0.0000
     41 C           4.4970    3.8251    3.4497 C.2     1  UNL1        0.0000
     42 N           3.9852    4.9303    2.8490 N.pl3   1  UNL1        0.0000
     43 C           4.1243    2.5765    2.8271 C.3     1  UNL1        0.0000
     44 C           4.5390    1.2339    3.3222 C.3     1  UNL1        0.0000
     45 H           5.6239    1.1414    3.3287 H       1  UNL1        0.0000
     46 H           4.1167    0.4742    2.6702 H       1  UNL1        0.0000
     47 H           4.1761    1.0725    4.3357 H       1  UNL1        0.0000
     48 C          -4.6138    7.3802    5.5578 C.ar    1  UNL1        0.0000
     49 C          -2.0267    4.8092    4.8982 C.ar    1  UNL1        0.0000
     50 H          -2.3657    4.0168    5.5484 H       1  UNL1        0.0000
     51 C          -3.9246    6.1990    5.6316 C.ar    1  UNL1        0.0000
     52 H          -4.2601    5.4063    6.2830 H       1  UNL1        0.0000
     53 C           5.5722    5.1797    5.1116 C.2     1  UNL1        0.0000
     54 H           6.1856    5.2828    5.9929 H       1  UNL1        0.0000
     55 C           0.9109   -0.7990   -1.5740 C.ar    1  UNL1        0.0000
     56 H           1.0863   -1.8636   -1.5375 H       1  UNL1        0.0000
     57 C           1.5616    0.0392   -0.7195 C.ar    1  UNL1        0.0000
     58 H           2.2615   -0.3333    0.0101 H       1  UNL1        0.0000
     59 C          -1.1730    1.6016   -3.5292 C.ar    1  UNL1        0.0000
     60 H          -1.3576    2.6647   -3.5681 H       1  UNL1        0.0000
     61 C          -1.1778    6.8740    3.2183 C.ar    1  UNL1        0.0000
     62 H          -0.8382    7.6599    2.5621 H       1  UNL1        0.0000
     63 C           1.3250    1.4327   -0.7739 C.ar    1  UNL1        0.0000
     64 C           4.7076    6.5473   -1.5385 C.2     1  UNL1        0.0000
     65 H           4.4792    7.5008   -1.9853 H       1  UNL1        0.0000
     66 C           5.0388    6.3004    4.4869 C.2     1  UNL1        0.0000
     67 H           5.2223    7.2923    4.8649 H       1  UNL1        0.0000
     68 C           5.7682    5.7859   -1.9873 C.2     1  UNL1        0.0000
     69 H           6.3908    6.1351   -2.7960 H       1  UNL1        0.0000
     70 C           6.0175    4.5601   -1.3823 C.2     1  UNL1        0.0000
     71 H           6.8319    3.9327   -1.7039 H       1  UNL1        0.0000
     72 C           5.2999    3.9317    4.5876 C.2     1  UNL1        0.0000
     73 H           5.6913    3.0387    5.0461 H       1  UNL1        0.0000
@<TRIPOS>BOND
     1     2    34    1
     2    32    31    1
     3    31    34   ar
     4    31    59   ar
     5    34    15   ar
     6    60    59    1
     7    59    11   ar
     8    15    16    1
     9    15    36   ar
    10    69    68    1
    11    11    36   ar
    12    11     9   ar
    13    36    55   ar
    14    68    64    2
    15    68    70    1
    16    65    64    1
    17    10     9    1
    18    71    70    1
    19     9    63   ar
    20    55    56    1
    21    55    57   ar
    22    64    23    1
    23    28    25    1
    24    70    37    2
    25    63    57   ar
    26    63    24    1
    27    57    58    1
    28    23    35    2
    29    23    30    1
    30    25    26    1
    31    25    35    1
    32    25    27    1
    33    37    30    1
    34    37    38    1
    35    35     8    1
    36     7    24    1
    37     7     1    1
    38    30     1    1
    39    24     5    2
    40     8     1    1
    41     8    29    1
    42     5     6    1
    43     1     6    1
    44     1     4    1
    45     1    42    1
    46    29    33    2
    47     6    43    1
    48    33     4    1
    49    33    17    1
    50    62    61    1
    51    46    44    1
    52    43    44    1
    53    43    41    1
    54    42    19    1
    55    42    41    1
    56    20    19    1
    57    61    17   ar
    58    61    12   ar
    59    17    21   ar
    60    40    39    1
    61    44    45    1
    62    44    47    1
    63    19    66    1
    64    41    72    2
    65    39    12   ar
    66    39    13   ar
    67    12    18   ar
    68    21    22    1
    69    21    49   ar
    70    66    67    1
    71    66    53    2
    72    72    73    1
    73    72    53    1
    74    14    13    1
    75    13    48   ar
    76    18    49   ar
    77    18    51   ar
    78    49    50    1
    79    53    54    1
    80    48    51   ar
    81    48     3    1
    82    51    52    1
