@<TRIPOS>MOLECULE
CSD_code = GUTJOV | q = 1 | S = 0 | Stoichiometry = C24H30CoN4O8(1+) | MND = 6
 67 72 0 0 0
SMALL
GASTEIGER

@<TRIPOS>ATOM
      1 CO          4.0625    4.4647    3.5622 Co.oh   1  UNL1        0.0000
      2 O           3.6603    5.1132    1.8495 O.3     1  UNL1        0.0000
      3 O           4.5913    4.5699   -0.4774 O.3     1  UNL1        0.0000
      4 H           4.5346    4.9040    0.4476 H       1  UNL1        0.0000
      5 O           3.1493    3.8089   -1.9815 O.2     1  UNL1        0.0000
      6 O           6.6752    3.4158    6.8380 O.3     1  UNL1        0.0000
      7 H           7.3248    3.3344    7.5431 H       1  UNL1        0.0000
      8 O           3.0679    2.9115    3.2244 O.3     1  UNL1        0.0000
      9 O           0.5487    2.4311    3.2196 O.3     1  UNL1        0.0000
     10 H           1.4549    2.6436    3.5423 H       1  UNL1        0.0000
     11 O          -0.3285    1.7002    1.3178 O.2     1  UNL1        0.0000
     12 O           5.2034    7.9523    5.8276 O.3     1  UNL1        0.0000
     13 H           5.4612    8.6240    6.4664 H       1  UNL1        0.0000
     14 N           2.5142    5.2676    4.2480 N.3     1  UNL1        0.0000
     15 N           4.3628    3.8005    5.4745 N.4     1  UNL1        0.0000
     16 N           5.5987    3.6542    2.8581 N.3     1  UNL1        0.0000
     17 N           5.2600    6.0994    3.8476 N.4     1  UNL1        0.0000
     18 C           3.3505    4.3281   -0.9181 C.2     1  UNL1        0.0000
     19 C           2.2340    4.7212   -0.0007 C.ar    1  UNL1        0.0000
     20 C           0.9454    4.6958   -0.5149 C.ar    1  UNL1        0.0000
     21 H           0.8315    4.4155   -1.5515 H       1  UNL1        0.0000
     22 C          -0.1584    5.0034    0.2686 C.ar    1  UNL1        0.0000
     23 H          -1.1478    4.9776   -0.1565 H       1  UNL1        0.0000
     24 C           0.0209    5.3049    1.5985 C.ar    1  UNL1        0.0000
     25 H          -0.8311    5.5054    2.2300 H       1  UNL1        0.0000
     26 C           1.3019    5.3064    2.1719 C.ar    1  UNL1        0.0000
     27 C           2.4455    5.0454    1.3627 C.ar    1  UNL1        0.0000
     28 C           1.4378    5.4906    3.5796 C.3     1  UNL1        0.0000
     29 H           0.5438    5.8183    4.1100 H       1  UNL1        0.0000
     30 C           2.5406    5.3924    5.6875 C.3     1  UNL1        0.0000
     31 H           1.5405    5.5658    6.0976 H       1  UNL1        0.0000
     32 H           3.1868    6.2327    5.9684 H       1  UNL1        0.0000
     33 C           3.1254    4.0836    6.2188 C.3     1  UNL1        0.0000
     34 H           3.3009    4.1507    7.2965 H       1  UNL1        0.0000
     35 H           2.4174    3.2750    6.0224 H       1  UNL1        0.0000
     36 C           4.8565    2.4310    5.6932 C.3     1  UNL1        0.0000
     37 H           5.4766    2.1416    4.8438 H       1  UNL1        0.0000
     38 H           4.0219    1.7342    5.7589 H       1  UNL1        0.0000
     39 C           5.7166    2.3760    6.9584 C.3     1  UNL1        0.0000
     40 H           5.1046    2.5285    7.8570 H       1  UNL1        0.0000
     41 H           6.2002    1.3971    7.0290 H       1  UNL1        0.0000
     42 C           0.6449    1.9364    1.9794 C.2     1  UNL1        0.0000
     43 C           2.0323    1.7175    1.4599 C.ar    1  UNL1        0.0000
     44 C           2.1671    1.0000    0.2797 C.ar    1  UNL1        0.0000
     45 H           1.2636    0.6250   -0.1776 H       1  UNL1        0.0000
     46 C           3.4080    0.7809   -0.3026 C.ar    1  UNL1        0.0000
     47 H           3.4843    0.2188   -1.2183 H       1  UNL1        0.0000
     48 C           4.5315    1.3188    0.2806 C.ar    1  UNL1        0.0000
     49 H           5.4979    1.1925   -0.1832 H       1  UNL1        0.0000
     50 C           4.4401    2.0837    1.4538 C.ar    1  UNL1        0.0000
     51 C           3.1774    2.2673    2.0884 C.ar    1  UNL1        0.0000
     52 C           5.6039    2.7390    1.9540 C.3     1  UNL1        0.0000
     53 H           6.5518    2.4465    1.5024 H       1  UNL1        0.0000
     54 C           6.8147    4.3343    3.2417 C.3     1  UNL1        0.0000
     55 H           7.6547    4.0572    2.5967 H       1  UNL1        0.0000
     56 H           7.0659    4.0754    4.2773 H       1  UNL1        0.0000
     57 C           6.5188    5.8303    3.1345 C.3     1  UNL1        0.0000
     58 H           7.3509    6.4166    3.5351 H       1  UNL1        0.0000
     59 H           6.3755    6.0873    2.0822 H       1  UNL1        0.0000
     60 C           4.7249    7.4424    3.5694 C.3     1  UNL1        0.0000
     61 H           3.6479    7.4341    3.7422 H       1  UNL1        0.0000
     62 H           4.9007    7.7115    2.5287 H       1  UNL1        0.0000
     63 C           5.3565    8.4680    4.5141 C.3     1  UNL1        0.0000
     64 H           6.4208    8.6100    4.2856 H       1  UNL1        0.0000
     65 H           4.8457    9.4293    4.4036 H       1  UNL1        0.0000
     66 H           5.1014    4.3861    5.8763 H       1  UNL1        0.0000
     67 H           5.4769    6.1325    4.8484 H       1  UNL1        0.0000
@<TRIPOS>BOND
     1     5    18    2
     2    21    20    1
     3    47    46    1
     4    18     3    1
     5    18    19    1
     6    20    19   ar
     7    20    22   ar
     8     3     4    1
     9    46    44   ar
    10    46    48   ar
    11    49    48    1
    12    45    44    1
    13    23    22    1
    14    19    27   ar
    15    22    24   ar
    16    44    43   ar
    17    48    50   ar
    18    11    42    2
    19    27     2    1
    20    27    26   ar
    21    50    52    1
    22    50    51   ar
    23    43    42    1
    24    43    51   ar
    25    53    52    1
    26    24    26   ar
    27    24    25    1
    28     2     1    1
    29    52    16    1
    30    42     9    1
    31    59    57    1
    32    51     8    1
    33    26    28    1
    34    62    60    1
    35    55    54    1
    36    16    54    1
    37    16     1    1
    38    57    54    1
    39    57    58    1
    40    57    17    1
    41     9    10    1
    42     8     1    1
    43    54    56    1
    44     1    17    1
    45     1    14    1
    46     1    15    1
    47    60    61    1
    48    60    17    1
    49    60    63    1
    50    28    29    1
    51    28    14    1
    52    17    67    1
    53    14    30    1
    54    64    63    1
    55    65    63    1
    56    63    12    1
    57    37    36    1
    58    15    36    1
    59    15    66    1
    60    15    33    1
    61    30    32    1
    62    30    31    1
    63    30    33    1
    64    36    38    1
    65    36    39    1
    66    12    13    1
    67    35    33    1
    68    33    34    1
    69     6    39    1
    70     6     7    1
    71    39    41    1
    72    39    40    1
