@<TRIPOS>MOLECULE
CSD_code = HACYIV | q = 0 | S = 0 | Stoichiometry = C20H25CoN8O4S2 | MND = 6
 60 65 0 0 0
SMALL
GASTEIGER

@<TRIPOS>ATOM
      1 CO          2.7129    6.3492    5.3311 Co.oh   1  UNL1        0.0000
      2 S           0.3303    5.2989    8.8327 S.3     1  UNL1        0.0000
      3 S           3.2687   10.5840    6.0450 S.3     1  UNL1        0.0000
      4 O           3.2433    4.5658    5.1261 O.2     1  UNL1        0.0000
      5 O           3.0453    6.5886    3.5064 O.3     1  UNL1        0.0000
      6 N           0.9514    5.7998    5.0726 N.pl3   1  UNL1        0.0000
      7 N           0.2845    5.5215    6.2078 N.2     1  UNL1        0.0000
      8 O           9.2610    4.0916    5.5078 O.3     1  UNL1        0.0000
      9 N           5.8273    2.2034    4.7353 N.pl3   1  UNL1        0.0000
     10 N           2.3022    6.0327    7.1705 N.pl3   1  UNL1        0.0000
     11 O          -2.1371    5.9303    2.1983 O.3     1  UNL1        0.0000
     12 N           4.4228    6.9546    5.6658 N.pl3   1  UNL1        0.0000
     13 N           4.5185    8.2566    5.8998 N.2     1  UNL1        0.0000
     14 N           2.2668    8.1533    5.5199 N.pl3   1  UNL1        0.0000
     15 H           1.3993    8.6725    5.4382 H       1  UNL1        0.0000
     16 C           6.8793    4.2312    5.3223 C.2     1  UNL1        0.0000
     17 C           5.6271    4.8918    5.3731 C.2     1  UNL1        0.0000
     18 C           0.9118    5.8380    2.6663 C.ar    1  UNL1        0.0000
     19 N           2.0353    6.2225    0.1331 N.ar    1  UNL1        0.0000
     20 C           2.2479    6.3063    2.5313 C.ar    1  UNL1        0.0000
     21 C           1.0476    5.6528    7.2650 C.2     1  UNL1        0.0000
     22 C           6.9493    2.9006    5.0046 C.3     1  UNL1        0.0000
     23 H           7.8909    2.3832    4.9579 H       1  UNL1        0.0000
     24 C           4.6026    2.7514    4.7689 C.2     1  UNL1        0.0000
     25 C           0.3270    5.6284    3.9522 C.3     1  UNL1        0.0000
     26 H          -0.7074    5.3057    4.0074 H       1  UNL1        0.0000
     27 C           4.4370    4.1163    5.0953 C.2     1  UNL1        0.0000
     28 C           8.1628    4.9713    5.6034 C.3     1  UNL1        0.0000
     29 H           8.2670    5.7916    4.8775 H       1  UNL1        0.0000
     30 H           8.1118    5.4080    6.6121 H       1  UNL1        0.0000
     31 C           5.5397    6.2711    5.6609 C.3     1  UNL1        0.0000
     32 H           6.4458    6.8325    5.8645 H       1  UNL1        0.0000
     33 C           2.7454    6.4795    1.2017 C.ar    1  UNL1        0.0000
     34 C           3.3365    8.8503    5.7954 C.2     1  UNL1        0.0000
     35 C           4.1460    6.9746    1.0230 C.3     1  UNL1        0.0000
     36 H           4.3831    7.0313   -0.0349 H       1  UNL1        0.0000
     37 H           4.8416    6.3052    1.5278 H       1  UNL1        0.0000
     38 H           4.2503    7.9575    1.4802 H       1  UNL1        0.0000
     39 C           0.1780    5.5685    1.4872 C.ar    1  UNL1        0.0000
     40 C           0.7853    5.7827    0.2693 C.ar    1  UNL1        0.0000
     41 H           0.2631    5.5890   -0.6590 H       1  UNL1        0.0000
     42 C           3.4124    1.9182    4.4451 C.3     1  UNL1        0.0000
     43 H           3.6766    0.8714    4.3142 H       1  UNL1        0.0000
     44 H           2.9399    2.2904    3.5357 H       1  UNL1        0.0000
     45 H           2.6736    2.0160    5.2391 H       1  UNL1        0.0000
     46 C          -1.2412    5.0607    1.5335 C.3     1  UNL1        0.0000
     47 H          -1.5877    4.8793    0.5054 H       1  UNL1        0.0000
     48 H          -1.2943    4.1146    2.0812 H       1  UNL1        0.0000
     49 C          -1.3707    4.9122    8.3390 C.3     1  UNL1        0.0000
     50 H          -1.7995    5.7799    7.8501 H       1  UNL1        0.0000
     51 H          -1.9118    4.6707    9.2482 H       1  UNL1        0.0000
     52 H          -1.3545    4.0684    7.6581 H       1  UNL1        0.0000
     53 C           5.0148   10.9433    6.3812 C.3     1  UNL1        0.0000
     54 H           5.3233   10.3967    7.2655 H       1  UNL1        0.0000
     55 H           5.0841   12.0139    6.5440 H       1  UNL1        0.0000
     56 H           5.6064   10.6422    5.5239 H       1  UNL1        0.0000
     57 H           5.9055    1.2234    4.4896 H       1  UNL1        0.0000
     58 H          10.0674    4.5882    5.6796 H       1  UNL1        0.0000
     59 H           2.8135    6.0959    8.0421 H       1  UNL1        0.0000
     60 H          -2.0533    6.8068    1.8076 H       1  UNL1        0.0000
@<TRIPOS>BOND
     1    41    40    1
     2    36    35    1
     3    19    40   ar
     4    19    33   ar
     5    40    39   ar
     6    47    46    1
     7    35    33    1
     8    35    38    1
     9    35    37    1
    10    33    20   ar
    11    39    46    1
    12    39    18   ar
    13    46    48    1
    14    46    11    1
    15    60    11    1
    16    20    18   ar
    17    20     5    1
    18    18    25    1
    19     5     1    1
    20    44    42    1
    21    25    26    1
    22    25     6    1
    23    43    42    1
    24    42    24    1
    25    42    45    1
    26    57     9    1
    27     9    24    1
    28     9    22    1
    29    24    27    2
    30    29    28    1
    31    23    22    1
    32    22    16    1
    33     6     1    1
    34     6     7    1
    35    27     4    1
    36    27    17    1
    37     4     1    1
    38    16    17    2
    39    16    28    1
    40     1    14    1
    41     1    12    1
    42     1    10    1
    43    17    31    1
    44    15    14    1
    45     8    28    1
    46     8    58    1
    47    14    34    1
    48    56    53    1
    49    28    30    1
    50    31    12    1
    51    31    32    1
    52    12    13    1
    53    34    13    2
    54    34     3    1
    55     3    53    1
    56     7    21    2
    57    53    55    1
    58    53    54    1
    59    10    21    1
    60    10    59    1
    61    21     2    1
    62    52    49    1
    63    50    49    1
    64    49     2    1
    65    49    51    1
