@<TRIPOS>MOLECULE
CSD_code = HUHYIT | q = 1 | S = 0 | Stoichiometry = C24H28CoN6O2(1+) | MND = 6
 61 68 0 0 0
SMALL
GASTEIGER

@<TRIPOS>ATOM
      1 CO          3.7869    5.4635    8.5117 Co.oh   1  UNL1        0.0000
      2 N           5.7059    5.6593    8.6582 N.pl3   1  UNL1        0.0000
      3 C           6.4472    5.9482    9.7112 C.3     1  UNL1        0.0000
      4 H           6.0982    6.1182   10.7101 H       1  UNL1        0.0000
      5 N           7.7473    5.9561    9.3886 N.pl3   1  UNL1        0.0000
      6 H           8.5176    6.1382   10.0131 H       1  UNL1        0.0000
      7 C           7.8473    5.6423    8.0660 C.2     1  UNL1        0.0000
      8 H           8.7838    5.5821    7.5531 H       1  UNL1        0.0000
      9 C           6.5706    5.4582    7.6173 C.2     1  UNL1        0.0000
     10 C           6.0844    4.9502    6.3099 C.3     1  UNL1        0.0000
     11 H           6.9252    4.7784    5.6402 H       1  UNL1        0.0000
     12 H           5.3977    5.6689    5.8609 H       1  UNL1        0.0000
     13 C           5.3485    3.6402    6.5906 C.3     1  UNL1        0.0000
     14 H           5.1729    3.1002    5.6533 H       1  UNL1        0.0000
     15 H           5.9667    3.0120    7.2392 H       1  UNL1        0.0000
     16 N           4.0638    3.8754    7.2699 N.4     1  UNL1        0.0000
     17 H           3.4131    4.1440    6.5334 H       1  UNL1        0.0000
     18 C           3.5971    2.6179    7.8891 C.3     1  UNL1        0.0000
     19 H           3.6398    1.8003    7.1590 H       1  UNL1        0.0000
     20 H           2.5579    2.7498    8.2055 H       1  UNL1        0.0000
     21 C           4.4450    2.2822    9.0848 C.ar    1  UNL1        0.0000
     22 C           5.1311    1.0841    9.1793 C.ar    1  UNL1        0.0000
     23 H           5.0540    0.3663    8.3743 H       1  UNL1        0.0000
     24 C           5.8979    0.7880   10.2926 C.ar    1  UNL1        0.0000
     25 H           6.4226   -0.1516   10.3560 H       1  UNL1        0.0000
     26 C           5.9788    1.7095   11.3243 C.ar    1  UNL1        0.0000
     27 H           6.5680    1.4861   12.2011 H       1  UNL1        0.0000
     28 C           5.3209    2.9176   11.2377 C.ar    1  UNL1        0.0000
     29 H           5.3744    3.6321   12.0463 H       1  UNL1        0.0000
     30 C           4.5357    3.2377   10.1177 C.ar    1  UNL1        0.0000
     31 O           3.9006    4.3870   10.0782 O.3     1  UNL1        0.0000
     32 N           1.8679    5.2676    8.3651 N.pl3   1  UNL1        0.0000
     33 C           1.1266    4.9787    7.3121 C.3     1  UNL1        0.0000
     34 H           1.4756    4.8088    6.3132 H       1  UNL1        0.0000
     35 N          -0.1735    4.9709    7.6346 N.pl3   1  UNL1        0.0000
     36 H          -0.9438    4.7889    7.0101 H       1  UNL1        0.0000
     37 C          -0.2735    5.2847    8.9572 C.2     1  UNL1        0.0000
     38 H          -1.2101    5.3449    9.4702 H       1  UNL1        0.0000
     39 C           1.0032    5.4688    9.4060 C.2     1  UNL1        0.0000
     40 C           1.4893    5.9767   10.7134 C.3     1  UNL1        0.0000
     41 H           0.6486    6.1485   11.3830 H       1  UNL1        0.0000
     42 H           2.1761    5.2580   11.1625 H       1  UNL1        0.0000
     43 C           2.2253    7.2868   10.4327 C.3     1  UNL1        0.0000
     44 H           2.4008    7.8267   11.3700 H       1  UNL1        0.0000
     45 H           1.6071    7.9150    9.7841 H       1  UNL1        0.0000
     46 N           3.5100    7.0516    9.7534 N.4     1  UNL1        0.0000
     47 H           4.1606    6.7830   10.4900 H       1  UNL1        0.0000
     48 C           3.9767    8.3090    9.1343 C.3     1  UNL1        0.0000
     49 H           3.9340    9.1267    9.8644 H       1  UNL1        0.0000
     50 H           5.0159    8.1771    8.8179 H       1  UNL1        0.0000
     51 C           3.1289    8.6448    7.9385 C.ar    1  UNL1        0.0000
     52 C           2.4428    9.8429    7.8440 C.ar    1  UNL1        0.0000
     53 H           2.5199   10.5607    8.6491 H       1  UNL1        0.0000
     54 C           1.6760   10.1390    6.7307 C.ar    1  UNL1        0.0000
     55 H           1.1514   11.0787    6.6674 H       1  UNL1        0.0000
     56 C           1.5951    9.2176    5.6990 C.ar    1  UNL1        0.0000
     57 H           1.0060    9.4411    4.8222 H       1  UNL1        0.0000
     58 C           2.2530    8.0094    5.7856 C.ar    1  UNL1        0.0000
     59 H           2.1995    7.2950    4.9770 H       1  UNL1        0.0000
     60 C           3.0382    7.6893    6.9056 C.ar    1  UNL1        0.0000
     61 O           3.6733    6.5400    6.9451 O.3     1  UNL1        0.0000
@<TRIPOS>BOND
     1    57    56    1
     2    59    58    1
     3    11    10    1
     4    14    13    1
     5    56    58   ar
     6    56    54   ar
     7    58    60   ar
     8    12    10    1
     9    10    13    1
    10    10     9    1
    11    34    33    1
    12    17    16    1
    13    13    15    1
    14    13    16    1
    15    55    54    1
    16    54    52   ar
    17    60    61    1
    18    60    51   ar
    19    61     1    1
    20    36    35    1
    21    19    18    1
    22    16    18    1
    23    16     1    1
    24    33    35    1
    25    33    32    1
    26     8     7    1
    27     9     7    2
    28     9     2    1
    29    35    37    1
    30    52    51   ar
    31    52    53    1
    32    18    20    1
    33    18    21    1
    34    51    48    1
    35     7     5    1
    36    32     1    1
    37    32    39    1
    38    23    22    1
    39     1     2    1
    40     1    46    1
    41     1    31    1
    42     2     3    1
    43    50    48    1
    44    37    39    2
    45    37    38    1
    46    21    22   ar
    47    21    30   ar
    48    48    46    1
    49    48    49    1
    50    22    24   ar
    51     5     3    1
    52     5     6    1
    53    39    40    1
    54     3     4    1
    55    46    43    1
    56    46    47    1
    57    45    43    1
    58    31    30    1
    59    30    28   ar
    60    24    25    1
    61    24    26   ar
    62    43    40    1
    63    43    44    1
    64    40    42    1
    65    40    41    1
    66    28    26   ar
    67    28    29    1
    68    26    27    1
