@<TRIPOS>MOLECULE
CSD_code = IFAFUT | q = 0 | S = 0 | Stoichiometry = C20H25CoN10O2 | MND = 6
 58 63 0 0 0
SMALL
GASTEIGER

@<TRIPOS>ATOM
      1 CO          3.3664    4.8601    5.9472 Co.oh   1  UNL1        0.0000
      2 C           3.0298    7.8749    6.2964 C.3     1  UNL1        0.0000
      3 H           3.1944    7.9368    5.2240 H       1  UNL1        0.0000
      4 H           1.9780    7.6489    6.4571 H       1  UNL1        0.0000
      5 H           3.2625    8.8464    6.7515 H       1  UNL1        0.0000
      6 O           1.7707    5.5235    5.2454 O.3     1  UNL1        0.0000
      7 N           4.7975    4.0937    6.9082 N.ar    1  UNL1        0.0000
      8 N           6.1125    3.9897    6.8888 N.ar    1  UNL1        0.0000
      9 N           6.4949    3.2909    7.9031 N.ar    1  UNL1        0.0000
     10 N           2.2939    4.1242    7.4312 N.pl3   1  UNL1        0.0000
     11 O          -0.7765    5.3992    4.7182 O.3     1  UNL1        0.0000
     12 N           3.0866    3.2422    5.0827 N.2     1  UNL1        0.0000
     13 N           2.0569    2.7496    4.8175 N.2     1  UNL1        0.0000
     14 N           5.4678    2.9033    8.6261 N.ar    1  UNL1        0.0000
     15 C           4.4053    3.3996    8.0050 C.ar    1  UNL1        0.0000
     16 C           3.0013    3.3704    8.2917 C.3     1  UNL1        0.0000
     17 C           0.9718    4.1671    7.5621 C.2     1  UNL1        0.0000
     18 H           0.4371    4.7603    6.8314 H       1  UNL1        0.0000
     19 C           0.3073    3.4812    8.5632 C.2     1  UNL1        0.0000
     20 H          -0.7668    3.5460    8.6321 H       1  UNL1        0.0000
     21 C           1.0361    2.7100    9.4603 C.2     1  UNL1        0.0000
     22 H           0.5376    2.1597   10.2437 H       1  UNL1        0.0000
     23 C           2.4091    2.6515    9.3245 C.2     1  UNL1        0.0000
     24 H           3.0353    2.0652    9.9768 H       1  UNL1        0.0000
     25 N           4.3186    5.5053    4.4446 N.3     1  UNL1        0.0000
     26 C           5.7120    5.8537    4.6008 C.3     1  UNL1        0.0000
     27 H           6.1966    5.9345    3.6201 H       1  UNL1        0.0000
     28 H           6.2183    5.0841    5.1892 H       1  UNL1        0.0000
     29 C           5.8219    7.2010    5.3233 C.3     1  UNL1        0.0000
     30 H           6.8769    7.4728    5.3847 H       1  UNL1        0.0000
     31 H           5.3130    7.9712    4.7386 H       1  UNL1        0.0000
     32 C           5.2808    7.1599    6.7507 C.3     1  UNL1        0.0000
     33 H           5.8623    6.4216    7.3063 H       1  UNL1        0.0000
     34 H           5.4518    8.1443    7.2155 H       1  UNL1        0.0000
     35 N           3.8515    6.8163    6.8868 N.4     1  UNL1        0.0000
     36 C           3.5499    6.7778    8.3202 C.3     1  UNL1        0.0000
     37 H           4.1415    6.0104    8.8173 H       1  UNL1        0.0000
     38 H           3.7787    7.7433    8.7915 H       1  UNL1        0.0000
     39 H           2.4940    6.5618    8.4726 H       1  UNL1        0.0000
     40 C           3.7851    5.6933    3.2848 C.3     1  UNL1        0.0000
     41 H           4.4435    5.9763    2.4599 H       1  UNL1        0.0000
     42 C           2.4044    5.6174    2.9574 C.ar    1  UNL1        0.0000
     43 C           1.4492    5.5412    4.0007 C.ar    1  UNL1        0.0000
     44 C           0.0632    5.4981    3.6467 C.ar    1  UNL1        0.0000
     45 C          -2.1276    5.0602    4.4837 C.3     1  UNL1        0.0000
     46 H          -2.1847    4.1988    3.8058 H       1  UNL1        0.0000
     47 H          -2.6549    5.9089    4.0240 H       1  UNL1        0.0000
     48 C          -2.7550    4.7115    5.8248 C.3     1  UNL1        0.0000
     49 H          -3.8078    4.4794    5.6915 H       1  UNL1        0.0000
     50 H          -2.2504    3.8479    6.2499 H       1  UNL1        0.0000
     51 H          -2.6582    5.5496    6.5105 H       1  UNL1        0.0000
     52 C          -0.3141    5.5349    2.3271 C.ar    1  UNL1        0.0000
     53 H          -1.3564    5.4861    2.0530 H       1  UNL1        0.0000
     54 C           0.6468    5.6232    1.3105 C.ar    1  UNL1        0.0000
     55 H           0.3187    5.6487    0.2831 H       1  UNL1        0.0000
     56 C           1.9777    5.6660    1.6160 C.ar    1  UNL1        0.0000
     57 H           2.7211    5.7194    0.8343 H       1  UNL1        0.0000
     58 N           1.1434    2.1527    4.5074 N.2     1  UNL1        0.0000
@<TRIPOS>BOND
     1    55    54    1
     2    57    56    1
     3    54    56   ar
     4    54    52   ar
     5    56    42   ar
     6    53    52    1
     7    52    44   ar
     8    41    40    1
     9    42    40    1
    10    42    43   ar
    11    40    25    1
    12    27    26    1
    13    44    43   ar
    14    44    11    1
    15    46    45    1
    16    43     6    1
    17    47    45    1
    18    25    26    1
    19    25     1    1
    20    45    11    1
    21    45    48    1
    22    58    13    2
    23    26    28    1
    24    26    29    1
    25    31    29    1
    26    13    12    2
    27    12     1    1
    28     3     2    1
    29     6     1    1
    30    29    30    1
    31    29    32    1
    32    49    48    1
    33    48    50    1
    34    48    51    1
    35     1    35    1
    36     1     7    1
    37     1    10    1
    38     2     4    1
    39     2     5    1
    40     2    35    1
    41    32    35    1
    42    32    34    1
    43    32    33    1
    44    18    17    1
    45    35    36    1
    46     8     7   ar
    47     8     9   ar
    48     7    15   ar
    49    10    17    1
    50    10    16    1
    51    17    19    2
    52     9    14   ar
    53    15    16    1
    54    15    14   ar
    55    16    23    1
    56    36    39    1
    57    36    38    1
    58    36    37    1
    59    19    20    1
    60    19    21    1
    61    23    21    2
    62    23    24    1
    63    21    22    1
