@<TRIPOS>MOLECULE
CSD_code = ITEQIJ | q = 1 | S = 0 | Stoichiometry = C24H30CoN8O4(1+) | MND = 6
 67 74 0 0 0
SMALL
GASTEIGER

@<TRIPOS>ATOM
      1 CO          5.4027    2.1012    3.2503 Co.oh   1  UNL1        0.0000
      2 O           6.9923    1.8941    2.2444 O.3     1  UNL1        0.0000
      3 O           3.8132    2.3124    4.2553 O.3     1  UNL1        0.0000
      4 O           9.2147    1.8605    2.1651 O.2     1  UNL1        0.0000
      5 O           1.5914    2.3765    4.3285 O.2     1  UNL1        0.0000
      6 N           4.6677    3.2112    1.8654 N.3     1  UNL1        0.0000
      7 N           3.3266    0.7172    1.9730 N.pl3   1  UNL1        0.0000
      8 N           6.1400    0.9886    4.6327 N.3     1  UNL1        0.0000
      9 N           4.6200    0.6009    2.3392 N.3     1  UNL1        0.0000
     10 N           3.3716    3.0122    1.5475 N.pl3   1  UNL1        0.0000
     11 N           7.4734    3.4806    4.5403 N.pl3   1  UNL1        0.0000
     12 N           6.1832    3.5998    4.1642 N.3     1  UNL1        0.0000
     13 N           7.4392    1.1809    4.9417 N.pl3   1  UNL1        0.0000
     14 C           8.1576    1.9689    2.7294 C.2     1  UNL1        0.0000
     15 C           5.1096    4.2076    1.0958 C.3     1  UNL1        0.0000
     16 C           5.7031   -0.0171    5.3928 C.3     1  UNL1        0.0000
     17 C           2.6451    1.9596    2.1970 C.3     1  UNL1        0.0000
     18 H           1.6209    1.9108    1.8254 H       1  UNL1        0.0000
     19 C           5.0187   -0.6206    1.9798 C.3     1  UNL1        0.0000
     20 C           6.7625   -0.4804    6.1815 C.2     1  UNL1        0.0000
     21 H           6.7252   -1.2831    6.8882 H       1  UNL1        0.0000
     22 C           4.0569    4.6570    0.2905 C.2     1  UNL1        0.0000
     23 H           4.0994    5.4497   -0.4271 H       1  UNL1        0.0000
     24 C           2.8741   -0.4178    1.4005 C.2     1  UNL1        0.0000
     25 C           2.9605    3.8774    0.5970 C.2     1  UNL1        0.0000
     26 C           5.7800    4.8170    4.5333 C.3     1  UNL1        0.0000
     27 C           6.3881   -1.1594    2.1636 C.3     1  UNL1        0.0000
     28 H           7.1267   -0.4467    1.8064 H       1  UNL1        0.0000
     29 H           6.4887   -2.0837    1.6016 H       1  UNL1        0.0000
     30 H           6.5903   -1.3716    3.2125 H       1  UNL1        0.0000
     31 C           2.6483    2.2498    3.7678 C.2     1  UNL1        0.0000
     32 C           6.4958    4.7344    1.0940 C.3     1  UNL1        0.0000
     33 H           6.7151    5.2702    2.0163 H       1  UNL1        0.0000
     34 H           6.6183    5.4203    0.2606 H       1  UNL1        0.0000
     35 H           7.2097    3.9214    0.9895 H       1  UNL1        0.0000
     36 C           8.1604    2.2439    4.3030 C.3     1  UNL1        0.0000
     37 H           9.1845    2.2937    4.6745 H       1  UNL1        0.0000
     38 C           3.9405   -1.2933    1.3935 C.2     1  UNL1        0.0000
     39 H           3.9473   -2.2925    1.0105 H       1  UNL1        0.0000
     40 C           7.8577    0.3010    5.8752 C.2     1  UNL1        0.0000
     41 C           4.3150   -0.5389    5.4017 C.3     1  UNL1        0.0000
     42 H           3.6034    0.2786    5.4814 H       1  UNL1        0.0000
     43 H           4.1863   -1.2030    6.2518 H       1  UNL1        0.0000
     44 H           4.0988   -1.0989    4.4929 H       1  UNL1        0.0000
     45 C           7.9194    4.6094    5.1301 C.2     1  UNL1        0.0000
     46 C           4.4124    5.3574    4.3418 C.3     1  UNL1        0.0000
     47 H           4.2052    5.5413    3.2887 H       1  UNL1        0.0000
     48 H           4.3185    6.2965    4.8795 H       1  UNL1        0.0000
     49 H           3.6722    4.6578    4.7217 H       1  UNL1        0.0000
     50 C           1.4848   -0.5882    0.9170 C.3     1  UNL1        0.0000
     51 H           0.7689   -0.4060    1.7177 H       1  UNL1        0.0000
     52 H           1.3509   -1.6041    0.5579 H       1  UNL1        0.0000
     53 H           1.2676    0.0953    0.0965 H       1  UNL1        0.0000
     54 C           6.8520    5.4838    5.1373 C.2     1  UNL1        0.0000
     55 H           6.8408    6.4786    5.5315 H       1  UNL1        0.0000
     56 C           1.5797    3.9054    0.0627 C.3     1  UNL1        0.0000
     57 H           1.3406    2.9770   -0.4555 H       1  UNL1        0.0000
     58 H           1.4842    4.7241   -0.6442 H       1  UNL1        0.0000
     59 H           0.8553    4.0514    0.8631 H       1  UNL1        0.0000
     60 C           9.2442    0.2617    6.3939 C.3     1  UNL1        0.0000
     61 H           9.9595    0.1323    5.5825 H       1  UNL1        0.0000
     62 H           9.3473   -0.5717    7.0824 H       1  UNL1        0.0000
     63 H           9.4896    1.1789    6.9288 H       1  UNL1        0.0000
     64 C           9.3036    4.7757    5.6294 C.3     1  UNL1        0.0000
     65 H           9.5161    4.0766    6.4378 H       1  UNL1        0.0000
     66 H           9.4300    5.7847    6.0101 H       1  UNL1        0.0000
     67 H          10.0274    4.6124    4.8317 H       1  UNL1        0.0000
@<TRIPOS>BOND
     1    58    56    1
     2    57    56    1
     3    23    22    1
     4    56    25    1
     5    56    59    1
     6    53    50    1
     7    34    32    1
     8    22    25    2
     9    22    15    1
    10    52    50    1
    11    25    10    1
    12    50    24    1
    13    50    51    1
    14    35    32    1
    15    39    38    1
    16    32    15    1
    17    32    33    1
    18    15     6    1
    19    38    24    2
    20    38    19    1
    21    24     7    1
    22    10     6    1
    23    10    17    1
    24    29    27    1
    25    28    27    1
    26    18    17    1
    27     6     1    1
    28     7    17    1
    29     7     9    1
    30    19    27    1
    31    19     9    1
    32    27    30    1
    33     4    14    2
    34    17    31    1
    35     2    14    1
    36     2     1    1
    37     9     1    1
    38    14    36    1
    39     1    12    1
    40     1     3    1
    41     1     8    1
    42    47    46    1
    43    31     3    1
    44    31     5    2
    45    12    26    1
    46    12    11    1
    47    36    11    1
    48    36    37    1
    49    36    13    1
    50    46    26    1
    51    46    49    1
    52    46    48    1
    53    44    41    1
    54    26    54    1
    55    11    45    1
    56     8    13    1
    57     8    16    1
    58    67    64    1
    59    13    40    1
    60    45    54    2
    61    45    64    1
    62    54    55    1
    63    16    41    1
    64    16    20    1
    65    41    42    1
    66    41    43    1
    67    61    60    1
    68    64    66    1
    69    64    65    1
    70    40    20    2
    71    40    60    1
    72    20    21    1
    73    60    63    1
    74    60    62    1
