@<TRIPOS>MOLECULE
CSD_code = JOLQUZ | q = 1 | S = 0 | Stoichiometry = C22H14CoN4O4(1+) | MND = 6
 45 52 0 0 0
SMALL
GASTEIGER

@<TRIPOS>ATOM
      1 CO          2.7146    6.0976    7.5422 Co.oh   1  UNL1        0.0000
      2 O           1.1471    6.1658    6.5087 O.3     1  UNL1        0.0000
      3 O           3.8229    6.0011    6.0282 O.3     1  UNL1        0.0000
      4 O          -0.2637    7.6032    5.5625 O.2     1  UNL1        0.0000
      5 O           4.8166    4.5383    4.6772 O.2     1  UNL1        0.0000
      6 N           2.6693    7.8942    7.4052 N.pl3   1  UNL1        0.0000
      7 N           2.7159    4.2984    7.4365 N.pl3   1  UNL1        0.0000
      8 N           1.5710    5.7801    9.0682 N.pl3   1  UNL1        0.0000
      9 N           4.3181    6.4433    8.5647 N.pl3   1  UNL1        0.0000
     10 C           4.6756    7.7502    8.5414 C.3     1  UNL1        0.0000
     11 C           5.1433    5.5658    9.1269 C.2     1  UNL1        0.0000
     12 H           4.8311    4.5302    9.1256 H       1  UNL1        0.0000
     13 C           1.7233    8.4244    6.6382 C.3     1  UNL1        0.0000
     14 C           1.2339    4.4742    9.2001 C.2     1  UNL1        0.0000
     15 C           3.7131    8.6059    7.8480 C.2     1  UNL1        0.0000
     16 C           1.8951    3.6005    8.2312 C.2     1  UNL1        0.0000
     17 C           0.9924    6.6724    9.8659 C.2     1  UNL1        0.0000
     18 H           1.2790    7.7067    9.7321 H       1  UNL1        0.0000
     19 C           3.7898    9.9667    7.5685 C.2     1  UNL1        0.0000
     20 H           4.6213   10.5571    7.9173 H       1  UNL1        0.0000
     21 C           0.7453    7.3454    6.1629 C.2     1  UNL1        0.0000
     22 C           4.0817    4.8128    5.5882 C.2     1  UNL1        0.0000
     23 C           1.7391    9.7742    6.3187 C.2     1  UNL1        0.0000
     24 H           0.9591   10.1794    5.6938 H       1  UNL1        0.0000
     25 C           3.3358    3.7481    6.3985 C.2     1  UNL1        0.0000
     26 C           2.7840   10.5491    6.8062 C.2     1  UNL1        0.0000
     27 H           2.8311   11.6019    6.5738 H       1  UNL1        0.0000
     28 C           0.0604    6.3252   10.8295 C.2     1  UNL1        0.0000
     29 H          -0.3851    7.0893   11.4452 H       1  UNL1        0.0000
     30 C           0.3109    4.0537   10.1508 C.2     1  UNL1        0.0000
     31 H           0.0601    3.0088   10.2318 H       1  UNL1        0.0000
     32 C          -0.2885    4.9907   10.9751 C.2     1  UNL1        0.0000
     33 H          -1.0165    4.6880   11.7112 H       1  UNL1        0.0000
     34 C           1.7294    2.2347    8.0243 C.2     1  UNL1        0.0000
     35 H           1.0734    1.6555    8.6535 H       1  UNL1        0.0000
     36 C           6.3539    5.9292    9.6927 C.2     1  UNL1        0.0000
     37 H           6.9901    5.1764   10.1285 H       1  UNL1        0.0000
     38 C           5.8730    8.1867    9.0966 C.2     1  UNL1        0.0000
     39 H           6.1330    9.2319    9.0612 H       1  UNL1        0.0000
     40 C           6.7276    7.2648    9.6768 C.2     1  UNL1        0.0000
     41 H           7.6676    7.5798   10.1018 H       1  UNL1        0.0000
     42 C           2.4074    1.6320    6.9712 C.2     1  UNL1        0.0000
     43 H           2.2853    0.5749    6.7920 H       1  UNL1        0.0000
     44 C           3.2140    2.3920    6.1334 C.2     1  UNL1        0.0000
     45 H           3.7281    1.9705    5.2843 H       1  UNL1        0.0000
@<TRIPOS>BOND
     1     5    22    2
     2    45    44    1
     3     4    21    2
     4    22     3    1
     5    22    25    1
     6    24    23    1
     7     3     1    1
     8    44    25    2
     9    44    42    1
    10    21     2    1
    11    21    13    1
    12    23    13    1
    13    23    26    2
    14    25     7    1
    15     2     1    1
    16    27    26    1
    17    13     6    1
    18    43    42    1
    19    26    19    1
    20    42    34    2
    21     6     1    1
    22     6    15    1
    23     7     1    1
    24     7    16    1
    25     1     9    1
    26     1     8    1
    27    19    15    2
    28    19    20    1
    29    15    10    1
    30    34    16    1
    31    34    35    1
    32    16    14    2
    33    10     9    1
    34    10    38    1
    35     9    11    1
    36    39    38    1
    37     8    14    1
    38     8    17    1
    39    38    40    2
    40    12    11    1
    41    11    36    2
    42    14    30    1
    43    40    36    1
    44    40    41    1
    45    36    37    1
    46    18    17    1
    47    17    28    2
    48    30    31    1
    49    30    32    2
    50    28    32    1
    51    28    29    1
    52    32    33    1
