@<TRIPOS>MOLECULE
CSD_code = KABZUJ | q = 1 | S = 0 | Stoichiometry = C18H18CoN8O4(1+) | MND = 6
 49 54 0 0 0
SMALL
GASTEIGER

@<TRIPOS>ATOM
      1 CO          0.1866    0.5388    2.5969 Co.oh   1  UNL1        0.0000
      2 C          -0.1967   -4.0900    2.9797 C.2     1  UNL1        0.0000
      3 C           1.4605    2.3617    3.9094 C.2     1  UNL1        0.0000
      4 C           2.7753    0.4794    1.2002 C.3     1  UNL1        0.0000
      5 C          -0.5530    1.3314    0.1420 C.3     1  UNL1        0.0000
      6 C          -3.7534    0.8559    3.6033 C.2     1  UNL1        0.0000
      7 C           1.6500    1.4903   -1.0641 C.2     1  UNL1        0.0000
      8 C           0.6860   -1.9396    3.5654 C.2     1  UNL1        0.0000
      9 C           1.4593   -1.0159    4.3763 C.2     1  UNL1        0.0000
     10 C          -2.3630    0.8432    2.9725 C.2     1  UNL1        0.0000
     11 C           2.0953    3.7001    4.2884 C.2     1  UNL1        0.0000
     12 C          -0.8894   -3.4796    1.9439 C.2     1  UNL1        0.0000
     13 C           3.5939    0.7919    0.1277 C.2     1  UNL1        0.0000
     14 C           3.0209    1.3120   -1.0243 C.2     1  UNL1        0.0000
     15 C           0.6012   -3.3110    3.7985 C.2     1  UNL1        0.0000
     16 C           0.8850    1.1561    0.0516 C.2     1  UNL1        0.0000
     17 C          -0.7595   -2.1118    1.7655 C.2     1  UNL1        0.0000
     18 C           2.2994   -1.4225    5.5349 C.3     1  UNL1        0.0000
     19 C          -1.4102    1.8600   -0.9492 C.3     1  UNL1        0.0000
     20 N           0.0058   -1.3569    2.5459 N.pl3   1  UNL1        0.0000
     21 N           1.3174    0.2057    3.9710 N.pl3   1  UNL1        0.0000
     22 N           1.8904    1.2802    4.5278 N.2     1  UNL1        0.0000
     23 N           2.4467    3.7681    5.5817 N.am    1  UNL1        0.0000
     24 N           1.4589    0.6537    1.1732 N.pl3   1  UNL1        0.0000
     25 N          -0.9994    0.9848    1.3066 N.pl3   1  UNL1        0.0000
     26 N          -2.2734    1.0652    1.6891 N.2     1  UNL1        0.0000
     27 N          -3.7206    1.1894    4.9032 N.am    1  UNL1        0.0000
     28 O           0.6044    2.3300    2.9801 O.2     1  UNL1        0.0000
     29 O           2.2599    4.5648    3.4667 O.2     1  UNL1        0.0000
     30 O          -1.3486    0.5989    3.7089 O.2     1  UNL1        0.0000
     31 O          -4.7364    0.5647    2.9736 O.2     1  UNL1        0.0000
     32 H          -0.2821   -5.1520    3.1481 H       1  UNL1        0.0000
     33 H           4.6576    0.6384    0.2036 H       1  UNL1        0.0000
     34 H           1.1674    1.8976   -1.9372 H       1  UNL1        0.0000
     35 H          -1.2965   -1.6123    0.9710 H       1  UNL1        0.0000
     36 H          -4.5829    1.2392    5.4218 H       1  UNL1        0.0000
     37 H           2.3539    2.9719    6.1876 H       1  UNL1        0.0000
     38 H           2.8248   -0.5506    5.9155 H       1  UNL1        0.0000
     39 H          -1.2784    1.2821   -1.8624 H       1  UNL1        0.0000
     40 H           2.9105    4.5985    5.9165 H       1  UNL1        0.0000
     41 H           3.6334    1.5772   -1.8716 H       1  UNL1        0.0000
     42 H           1.1470   -3.7474    4.6189 H       1  UNL1        0.0000
     43 H           3.1996    0.0802    2.1114 H       1  UNL1        0.0000
     44 H          -2.8506    1.4003    5.3613 H       1  UNL1        0.0000
     45 H          -2.4498    1.8154   -0.6335 H       1  UNL1        0.0000
     46 H          -1.5268   -4.0463    1.2857 H       1  UNL1        0.0000
     47 H           3.0222   -2.1811    5.2396 H       1  UNL1        0.0000
     48 H          -1.1506    2.8966   -1.1609 H       1  UNL1        0.0000
     49 H           1.6782   -1.8358    6.3285 H       1  UNL1        0.0000
@<TRIPOS>BOND
     1    34     7    1
     2    41    14    1
     3    39    19    1
     4    48    19    1
     5     7    14    1
     6     7    16    2
     7    14    13    2
     8    19    45    1
     9    19     5    1
    10    16     5    1
    11    16    24    1
    12    13    33    1
    13    13     4    1
    14     5    25    1
    15    35    17    1
    16    24     4    1
    17    24     1    1
    18     4    43    1
    19    46    12    1
    20    25    26    1
    21    25     1    1
    22    26    10    2
    23    17    12    2
    24    17    20    1
    25    12     2    1
    26    20     1    1
    27    20     8    1
    28     1    28    1
    29     1    30    1
    30     1    21    1
    31    10     6    1
    32    10    30    1
    33    31     6    2
    34     2    32    1
    35     2    15    2
    36    28     3    1
    37    29    11    2
    38     8    15    1
    39     8     9    2
    40     6    27   am
    41    15    42    1
    42     3    11    1
    43     3    22    2
    44    21     9    1
    45    21    22    1
    46    11    23   am
    47     9    18    1
    48    27    44    1
    49    27    36    1
    50    47    18    1
    51    18    38    1
    52    18    49    1
    53    23    40    1
    54    23    37    1
