@<TRIPOS>MOLECULE
CSD_code = KIQVAK | q = 1 | S = 0 | Stoichiometry = C36H40CoN8O6(1+) | MND = 6
 91 98 0 0 0
SMALL
GASTEIGER

@<TRIPOS>ATOM
      1 CO          5.8877    9.3474    6.3986 Co.oh   1  UNL1        0.0000
      2 O           5.4903    9.0667    4.5860 O.3     1  UNL1        0.0000
      3 O           5.0287    9.2761    2.0604 O.3     1  UNL1        0.0000
      4 O           7.5212    9.5081   11.0040 O.3     1  UNL1        0.0000
      5 O           7.7288    9.1020    6.0009 O.3     1  UNL1        0.0000
      6 O          10.0766    8.1363    5.5188 O.3     1  UNL1        0.0000
      7 O           3.8024    8.8978    9.5333 O.3     1  UNL1        0.0000
      8 N           5.8773    7.4982    6.8101 N.3     1  UNL1        0.0000
      9 N           6.4177    9.5705    8.3575 N.4     1  UNL1        0.0000
     10 H           5.4959    9.5398    8.8186 H       1  UNL1        0.0000
     11 N           5.3181    4.4370    1.7020 N.2     1  UNL1        0.0000
     12 N           5.0242    4.4053    0.4830 N.2     1  UNL1        0.0000
     13 N           5.9758   11.1860    5.9720 N.3     1  UNL1        0.0000
     14 N           4.1182    9.6519    6.7933 N.3     1  UNL1        0.0000
     15 H           3.5529    9.0350   10.4540 H       1  UNL1        0.0000
     16 N          11.2682   12.3609    3.4398 N.2     1  UNL1        0.0000
     17 N          12.4821   12.0817    3.2979 N.2     1  UNL1        0.0000
     18 C           5.4413    7.9612    3.9572 C.ar    1  UNL1        0.0000
     19 C           5.1966    8.0154    2.5304 C.ar    1  UNL1        0.0000
     20 C           5.1449    6.8734    1.7862 C.ar    1  UNL1        0.0000
     21 H           4.9688    6.8859    0.7224 H       1  UNL1        0.0000
     22 C           5.3312    5.6027    2.3957 C.ar    1  UNL1        0.0000
     23 C           5.5628    5.5251    3.7617 C.ar    1  UNL1        0.0000
     24 H           5.6993    4.5536    4.2111 H       1  UNL1        0.0000
     25 C           5.6093    6.6751    4.5515 C.ar    1  UNL1        0.0000
     26 C           4.7752    9.4437    0.6839 C.3     1  UNL1        0.0000
     27 H           5.6051    9.0706    0.0763 H       1  UNL1        0.0000
     28 H           4.6704   10.5163    0.5322 H       1  UNL1        0.0000
     29 H           3.8499    8.9423    0.3846 H       1  UNL1        0.0000
     30 C           5.8523    6.5442    5.9537 C.3     1  UNL1        0.0000
     31 H           6.0205    5.5235    6.3018 H       1  UNL1        0.0000
     32 C           6.1753    7.1988    8.2013 C.3     1  UNL1        0.0000
     33 H           6.6525    6.2206    8.3071 H       1  UNL1        0.0000
     34 H           5.2407    7.2085    8.7721 H       1  UNL1        0.0000
     35 C           7.0730    8.3157    8.6961 C.3     1  UNL1        0.0000
     36 H           7.2469    8.3228    9.8054 H       1  UNL1        0.0000
     37 H           8.0457    8.2696    8.1992 H       1  UNL1        0.0000
     38 C           7.1496   10.6910    8.9146 C.3     1  UNL1        0.0000
     39 H           6.7309   11.6391    8.5776 H       1  UNL1        0.0000
     40 H           8.1986   10.6254    8.6205 H       1  UNL1        0.0000
     41 C           7.0359   10.6270   10.4876 C.3     1  UNL1        0.0000
     42 H           7.6099   11.5042   10.8459 H       1  UNL1        0.0000
     43 H           5.9650   10.7998   10.7415 H       1  UNL1        0.0000
     44 C           5.0917    3.2379   -0.2277 C.ar    1  UNL1        0.0000
     45 C           4.5941    3.2640   -1.5365 C.ar    1  UNL1        0.0000
     46 H           4.1674    4.1803   -1.9140 H       1  UNL1        0.0000
     47 C           4.6467    2.1266   -2.3153 C.ar    1  UNL1        0.0000
     48 H           4.2603    2.1459   -3.3229 H       1  UNL1        0.0000
     49 C           5.1995    0.9592   -1.8075 C.ar    1  UNL1        0.0000
     50 H           5.2426    0.0727   -2.4213 H       1  UNL1        0.0000
     51 C           5.7005    0.9284   -0.5121 C.ar    1  UNL1        0.0000
     52 H           6.1297    0.0173   -0.1228 H       1  UNL1        0.0000
     53 C           5.6513    2.0543    0.2793 C.ar    1  UNL1        0.0000
     54 H           6.0362    2.0549    1.2881 H       1  UNL1        0.0000
     55 C           8.5282    9.8913    5.4122 C.ar    1  UNL1        0.0000
     56 C           9.8604    9.4085    5.1061 C.ar    1  UNL1        0.0000
     57 C          10.7642   10.2080    4.4710 C.ar    1  UNL1        0.0000
     58 H          11.7597    9.8728    4.2270 H       1  UNL1        0.0000
     59 C          10.4201   11.5379    4.1013 C.ar    1  UNL1        0.0000
     60 C           9.1504   12.0249    4.3850 C.ar    1  UNL1        0.0000
     61 H           8.9071   13.0375    4.1018 H       1  UNL1        0.0000
     62 C           8.2077   11.2348    5.0428 C.ar    1  UNL1        0.0000
     63 C          11.3427    7.5641    5.2810 C.3     1  UNL1        0.0000
     64 H          11.5608    7.5086    4.2103 H       1  UNL1        0.0000
     65 H          11.2934    6.5580    5.6928 H       1  UNL1        0.0000
     66 H          12.1345    8.1248    5.7864 H       1  UNL1        0.0000
     67 C           6.9240   11.7816    5.3445 C.3     1  UNL1        0.0000
     68 H           6.7680   12.8118    5.0191 H       1  UNL1        0.0000
     69 C           4.7330   11.8835    6.2150 C.3     1  UNL1        0.0000
     70 H           4.5763   12.6952    5.4979 H       1  UNL1        0.0000
     71 H           4.7610   12.3064    7.2261 H       1  UNL1        0.0000
     72 C           3.6249   10.8361    6.1418 C.3     1  UNL1        0.0000
     73 H           2.7115   11.2016    6.6241 H       1  UNL1        0.0000
     74 H           3.3957   10.6255    5.0849 H       1  UNL1        0.0000
     75 C           3.0899    8.7604    7.2492 C.3     1  UNL1        0.0000
     76 H           3.4470    7.7298    7.2267 H       1  UNL1        0.0000
     77 H           2.1959    8.8269    6.6158 H       1  UNL1        0.0000
     78 C           2.6764    9.0870    8.6981 C.3     1  UNL1        0.0000
     79 H           2.3301   10.1266    8.7603 H       1  UNL1        0.0000
     80 H           1.8570    8.4230    8.9965 H       1  UNL1        0.0000
     81 C          13.3031   12.8488    2.5198 C.ar    1  UNL1        0.0000
     82 C          14.6757   12.5753    2.5869 C.ar    1  UNL1        0.0000
     83 H          15.0212   11.8032    3.2571 H       1  UNL1        0.0000
     84 C          15.5593   13.2967    1.8118 C.ar    1  UNL1        0.0000
     85 H          16.6172   13.0896    1.8671 H       1  UNL1        0.0000
     86 C          15.0909   14.2871    0.9592 C.ar    1  UNL1        0.0000
     87 H          15.7853   14.8467    0.3512 H       1  UNL1        0.0000
     88 C          13.7305   14.5587    0.8826 C.ar    1  UNL1        0.0000
     89 H          13.3724   15.3294    0.2163 H       1  UNL1        0.0000
     90 C          12.8355   13.8492    1.6521 C.ar    1  UNL1        0.0000
     91 H          11.7738   14.0410    1.6075 H       1  UNL1        0.0000
@<TRIPOS>BOND
     1    48    47    1
     2    50    49    1
     3    47    49   ar
     4    47    45   ar
     5    46    45    1
     6    49    51   ar
     7    45    44   ar
     8    51    52    1
     9    51    53   ar
    10    44    53   ar
    11    44    12    1
    12    27    26    1
    13    89    88    1
    14    53    54    1
    15    87    86    1
    16    29    26    1
    17    12    11    2
    18    28    26    1
    19    26     3    1
    20    21    20    1
    21    88    86   ar
    22    88    90   ar
    23    86    84   ar
    24    91    90    1
    25    90    81   ar
    26    11    22    1
    27    20    22   ar
    28    20    19   ar
    29    84    85    1
    30    84    82   ar
    31     3    19    1
    32    22    23   ar
    33    81    82   ar
    34    81    17    1
    35    19    18   ar
    36    82    83    1
    37    17    16    2
    38    16    59    1
    39    23    24    1
    40    23    25   ar
    41    18    25   ar
    42    18     2    1
    43    59    60   ar
    44    59    57   ar
    45    61    60    1
    46    64    63    1
    47    58    57    1
    48    60    62   ar
    49    57    56   ar
    50    25    30    1
    51     2     1    1
    52    68    67    1
    53    62    67    1
    54    62    55   ar
    55    74    72    1
    56    56    55   ar
    57    56     6    1
    58    63     6    1
    59    63    65    1
    60    63    66    1
    61    67    13    1
    62    55     5    1
    63    70    69    1
    64    30    31    1
    65    30     8    1
    66    13    69    1
    67    13     1    1
    68     5     1    1
    69    72    69    1
    70    72    73    1
    71    72    14    1
    72    69    71    1
    73     1    14    1
    74     1     8    1
    75     1     9    1
    76    77    75    1
    77    14    75    1
    78     8    32    1
    79    76    75    1
    80    75    78    1
    81    37    35    1
    82    32    33    1
    83    32    35    1
    84    32    34    1
    85     9    35    1
    86     9    10    1
    87     9    38    1
    88    39    38    1
    89    40    38    1
    90    35    36    1
    91    78    79    1
    92    78    80    1
    93    78     7    1
    94    38    41    1
    95     7    15    1
    96    41    43    1
    97    41    42    1
    98    41     4    1
