@<TRIPOS>MOLECULE
CSD_code = LEPDUI | q = 1 | S = 0 | Stoichiometry = C20H16CoN6O2(1+) | MND = 6
 45 52 0 0 0
SMALL
GASTEIGER

@<TRIPOS>ATOM
      1 CO          6.8725   -5.6540   -3.6765 Co.oh   1  UNL1        0.0000
      2 O           7.6338   -4.2207   -2.7500 O.3     1  UNL1        0.0000
      3 N           6.2009   -6.9854   -4.8882 N.pl3   1  UNL1        0.5000
      4 C           5.4398   -8.1036   -4.9674 C.2     1  UNL1        0.0000
      5 H           5.0309   -8.5795   -4.0992 H       1  UNL1        0.0000
      6 N           6.0074   -7.5364   -7.0065 N.pl3   1  UNL1        0.5000
      7 H           6.0894   -7.5144   -8.0108 H       1  UNL1        0.0000
      8 C           5.3106   -8.4591   -6.2811 C.2     1  UNL1        0.0000
      9 H           4.7883   -9.2739   -6.7370 H       1  UNL1        0.0000
     10 N           7.5982   -4.8997   -5.1860 N.pl3   1  UNL1        0.0000
     11 C           6.5361   -6.6482   -6.1399 C.2     1  UNL1        0.0000
     12 C           7.3229   -5.4769   -6.3199 C.2     1  UNL1        0.0000
     13 H           7.6209   -5.1013   -7.2887 H       1  UNL1        0.0000
     14 C           8.2608   -3.7366   -4.9489 C.ar    1  UNL1        0.0000
     15 C           8.8950   -2.8964   -5.8777 C.ar    1  UNL1        0.0000
     16 H           8.9071   -3.1533   -6.9257 H       1  UNL1        0.0000
     17 C           9.4978   -1.7489   -5.4310 C.ar    1  UNL1        0.0000
     18 H           9.9893   -1.0894   -6.1281 H       1  UNL1        0.0000
     19 C           9.4767   -1.4200   -4.0672 C.ar    1  UNL1        0.0000
     20 H           9.9548   -0.5079   -3.7434 H       1  UNL1        0.0000
     21 C           8.8639   -2.2237   -3.1391 C.ar    1  UNL1        0.0000
     22 H           8.8448   -1.9670   -2.0922 H       1  UNL1        0.0000
     23 C           8.2331   -3.4119   -3.5586 C.ar    1  UNL1        0.0000
     24 O           5.2906   -4.6860   -3.9073 O.3     1  UNL1        0.0000
     25 N           8.3710   -6.7428   -3.1663 N.pl3   1  UNL1        0.5000
     26 C           9.6334   -7.0926   -3.5127 C.2     1  UNL1        0.0000
     27 H          10.0901   -6.7583   -4.4223 H       1  UNL1        0.0000
     28 N           9.1904   -8.0210   -1.5778 N.pl3   1  UNL1        0.5000
     29 H           9.2779   -8.5371   -0.7165 H       1  UNL1        0.0000
     30 C          10.1568   -7.8893   -2.5327 C.2     1  UNL1        0.0000
     31 H          11.1165   -8.3544   -2.4478 H       1  UNL1        0.0000
     32 N           6.1077   -6.2931   -2.1336 N.pl3   1  UNL1        0.0000
     33 C           8.1159   -7.3125   -1.9816 C.2     1  UNL1        0.0000
     34 C           6.8454   -7.0672   -1.3911 C.2     1  UNL1        0.0000
     35 H           6.5515   -7.4538   -0.4253 H       1  UNL1        0.0000
     36 C           4.8728   -5.7817   -1.8855 C.ar    1  UNL1        0.0000
     37 C           4.0371   -6.0315   -0.7856 C.ar    1  UNL1        0.0000
     38 H           4.3465   -6.7149   -0.0100 H       1  UNL1        0.0000
     39 C           2.8244   -5.3955   -0.7157 C.ar    1  UNL1        0.0000
     40 H           2.1682   -5.5726    0.1212 H       1  UNL1        0.0000
     41 C           2.4290   -4.5069   -1.7269 C.ar    1  UNL1        0.0000
     42 H           1.4712   -4.0160   -1.6443 H       1  UNL1        0.0000
     43 C           3.2270   -4.2451   -2.8120 C.ar    1  UNL1        0.0000
     44 H           2.9234   -3.5585   -3.5857 H       1  UNL1        0.0000
     45 C           4.4809   -4.8791   -2.9204 C.ar    1  UNL1        0.0000
@<TRIPOS>BOND
     1     7     6    1
     2    13    12    1
     3     6     8    1
     4     6    11    1
     5    16    15    1
     6     9     8    1
     7    12    11    2
     8    12    10    1
     9     8     4    2
    10    11     3    1
    11    18    17    1
    12    15    17   ar
    13    15    14   ar
    14    17    19   ar
    15    10    14    1
    16    10     1    1
    17     4     3    1
    18     4     5    1
    19    14    23   ar
    20     3     1    1
    21    27    26    1
    22    19    20    1
    23    19    21   ar
    24    24     1    1
    25    24    45    1
    26     1    25    1
    27     1     2    1
    28     1    32    1
    29    44    43    1
    30    23    21   ar
    31    23     2    1
    32    26    25    1
    33    26    30    2
    34    25    33    1
    35    21    22    1
    36    45    43   ar
    37    45    36   ar
    38    43    41   ar
    39    30    31    1
    40    30    28    1
    41    32    36    1
    42    32    34    1
    43    33    28    1
    44    33    34    2
    45    36    37   ar
    46    41    42    1
    47    41    39   ar
    48    28    29    1
    49    34    35    1
    50    37    39   ar
    51    37    38    1
    52    39    40    1
