@<TRIPOS>MOLECULE
CSD_code = NOGXAJ | q = 1 | S = 0 | Stoichiometry = C22H18CoN4O4(1+) | MND = 6
 49 56 0 0 0
SMALL
GASTEIGER

@<TRIPOS>ATOM
      1 CO          1.6761    5.1087    0.6552 Co.oh   1  UNL1        0.0000
      2 O          -0.1335    5.5277    0.9863 O.3     1  UNL1        0.0000
      3 O           3.4865    4.6908    0.3274 O.3     1  UNL1        0.0000
      4 O          -1.4497    7.3807    0.6510 O.3     1  UNL1        0.0000
      5 H          -2.0293    6.7180    1.0471 H       1  UNL1        0.0000
      6 O           4.8033    2.8388    0.6655 O.3     1  UNL1        0.0000
      7 H           5.3823    3.5009    0.2668 H       1  UNL1        0.0000
      8 N           1.9985    6.8391    1.3665 N.pl3   1  UNL1        0.0000
      9 N           1.3552    5.9488   -1.0180 N.pl3   1  UNL1        0.0000
     10 N           1.9924    4.2661    2.3268 N.pl3   1  UNL1        0.0000
     11 N           1.3562    3.3785   -0.0604 N.pl3   1  UNL1        0.0000
     12 C           3.0802    7.3488    1.9477 C.3     1  UNL1        0.0000
     13 H           3.9442    6.7029    2.0064 H       1  UNL1        0.0000
     14 C           3.0967    8.6448    2.4328 C.2     1  UNL1        0.0000
     15 H           3.9897    9.0309    2.8970 H       1  UNL1        0.0000
     16 C           1.9581    9.4305    2.3136 C.2     1  UNL1        0.0000
     17 H           1.9459   10.4407    2.6923 H       1  UNL1        0.0000
     18 C           0.8366    8.8988    1.6963 C.2     1  UNL1        0.0000
     19 H          -0.0792    9.4537    1.5725 H       1  UNL1        0.0000
     20 C           0.9082    7.5978    1.2375 C.2     1  UNL1        0.0000
     21 C          -0.1924    6.8063    0.5248 C.3     1  UNL1        0.0000
     22 C           0.3244    6.7904   -0.9171 C.3     1  UNL1        0.0000
     23 C          -0.1670    7.5122   -1.9875 C.2     1  UNL1        0.0000
     24 H          -1.0119    8.1655   -1.8417 H       1  UNL1        0.0000
     25 C           0.4508    7.3483   -3.2175 C.2     1  UNL1        0.0000
     26 H           0.0965    7.8864   -4.0830 H       1  UNL1        0.0000
     27 C           1.5337    6.4848   -3.3168 C.2     1  UNL1        0.0000
     28 H           2.0443    6.3430   -4.2556 H       1  UNL1        0.0000
     29 C           1.9590    5.7985   -2.1930 C.2     1  UNL1        0.0000
     30 H           2.8035    5.1250   -2.2171 H       1  UNL1        0.0000
     31 C           1.3805    4.4092    3.4984 C.3     1  UNL1        0.0000
     32 H           0.5382    5.0855    3.5216 H       1  UNL1        0.0000
     33 C           1.7943    3.7116    4.6196 C.2     1  UNL1        0.0000
     34 H           1.2764    3.8468    5.5553 H       1  UNL1        0.0000
     35 C           2.8749    2.8451    4.5213 C.2     1  UNL1        0.0000
     36 H           3.2198    2.2975    5.3845 H       1  UNL1        0.0000
     37 C           3.5024    2.6901    3.2950 C.2     1  UNL1        0.0000
     38 H           4.3462    2.0352    3.1503 H       1  UNL1        0.0000
     39 C           3.0215    3.4222    2.2268 C.2     1  UNL1        0.0000
     40 C           3.5449    3.4117    0.7874 C.3     1  UNL1        0.0000
     41 C           2.4479    2.6216    0.0675 C.3     1  UNL1        0.0000
     42 C           2.5251    1.3245   -0.4016 C.2     1  UNL1        0.0000
     43 H           3.4418    0.7712   -0.2781 H       1  UNL1        0.0000
     44 C           1.4082    0.7953   -1.0292 C.2     1  UNL1        0.0000
     45 H           1.4252   -0.2113   -1.4172 H       1  UNL1        0.0000
     46 C           0.2679    1.5788   -1.1469 C.2     1  UNL1        0.0000
     47 H          -0.6217    1.1943   -1.6190 H       1  UNL1        0.0000
     48 C           0.2785    2.8704   -0.6504 C.2     1  UNL1        0.0000
     49 H          -0.5871    3.5144   -0.7075 H       1  UNL1        0.0000
@<TRIPOS>BOND
     1    28    27    1
     2    26    25    1
     3    27    25    1
     4    27    29    2
     5    25    23    2
     6    30    29    1
     7    29     9    1
     8    23    24    1
     9    23    22    1
    10    47    46    1
    11    45    44    1
    12    46    44    1
    13    46    48    2
    14    44    42    2
    15     9    22    1
    16     9     1    1
    17    22    21    1
    18    49    48    1
    19    48    11    1
    20    42    43    1
    21    42    41    1
    22    11    41    1
    23    11     1    1
    24    41    40    1
    25     7     6    1
    26     3     1    1
    27     3    40    1
    28    21     4    1
    29    21     2    1
    30    21    20    1
    31     4     5    1
    32     1     2    1
    33     1     8    1
    34     1    10    1
    35     6    40    1
    36    40    39    1
    37    20     8    1
    38    20    18    2
    39     8    12    1
    40    19    18    1
    41    18    16    1
    42    12    13    1
    43    12    14    1
    44    39    10    1
    45    39    37    2
    46    16    14    2
    47    16    17    1
    48    10    31    1
    49    14    15    1
    50    38    37    1
    51    37    35    1
    52    31    32    1
    53    31    33    1
    54    35    33    2
    55    35    36    1
    56    33    34    1
