@<TRIPOS>MOLECULE
CSD_code = OFIJUK | q = 1 | S = 0 | Stoichiometry = C32H36CoN4O4(1+) | MND = 6
 77 84 0 0 0
SMALL
GASTEIGER

@<TRIPOS>ATOM
      1 CO         -1.0812    9.3502    8.2295 Co.oh   1  UNL1        0.0000
      2 C          -1.5410    6.7264    9.1880 C.ar    1  UNL1        0.0000
      3 C          -2.4822    5.9222    9.8631 C.ar    1  UNL1        0.0000
      4 H          -3.1420    6.4005   10.5709 H       1  UNL1        0.0000
      5 C          -2.5531    4.5682    9.6303 C.ar    1  UNL1        0.0000
      6 H          -3.2818    3.9730   10.1588 H       1  UNL1        0.0000
      7 C          -1.6972    3.9667    8.7162 C.ar    1  UNL1        0.0000
      8 H          -1.7574    2.9067    8.5301 H       1  UNL1        0.0000
      9 C          -0.7523    4.7353    8.0563 C.ar    1  UNL1        0.0000
     10 H          -0.0681    4.2630    7.3664 H       1  UNL1        0.0000
     11 C          -0.6567    6.0977    8.2785 C.ar    1  UNL1        0.0000
     12 C           0.4458    6.9079    7.6633 C.3     1  UNL1        0.0000
     13 H           1.1569    7.1497    8.4672 H       1  UNL1        0.0000
     14 H           0.9682    6.3058    6.9110 H       1  UNL1        0.0000
     15 C          -0.7408    8.0220    5.7934 C.3     1  UNL1        0.0000
     16 H          -0.3322    7.1978    5.2001 H       1  UNL1        0.0000
     17 H          -0.6406    8.9551    5.2343 H       1  UNL1        0.0000
     18 C          -2.2068    7.7867    6.1093 C.3     1  UNL1        0.0000
     19 H          -2.8139    7.8328    5.1986 H       1  UNL1        0.0000
     20 H          -2.3347    6.7972    6.5600 H       1  UNL1        0.0000
     21 C          -3.9756    8.4498    7.5916 C.3     1  UNL1        0.0000
     22 H          -4.2038    9.0652    8.4680 H       1  UNL1        0.0000
     23 H          -3.9908    7.4033    7.9078 H       1  UNL1        0.0000
     24 C          -5.0413    8.7245    6.5599 C.2     1  UNL1        0.0000
     25 C          -6.0607    7.8424    6.3003 C.2     1  UNL1        0.0000
     26 H          -6.0817    6.8869    6.8056 H       1  UNL1        0.0000
     27 C          -7.0762    8.1697    5.4039 C.3     1  UNL1        0.0000
     28 H          -7.8688    7.4643    5.2117 H       1  UNL1        0.0000
     29 C          -7.0720    9.4095    4.7662 C.2     1  UNL1        0.0000
     30 H          -7.8675    9.6564    4.0797 H       1  UNL1        0.0000
     31 C          -6.0695   10.3132    5.0021 C.2     1  UNL1        0.0000
     32 H          -6.0440   11.2723    4.5086 H       1  UNL1        0.0000
     33 C          -4.9968   10.0083    5.8964 C.2     1  UNL1        0.0000
     34 N          -0.0040    8.1786    7.0621 N.4     1  UNL1        0.0000
     35 H           0.8404    8.6996    6.8244 H       1  UNL1        0.0000
     36 N          -2.6386    8.8030    7.0792 N.4     1  UNL1        0.0000
     37 H          -2.8291    9.7046    6.5709 H       1  UNL1        0.0000
     38 O          -1.5323    8.0122    9.4164 O.3     1  UNL1        0.0000
     39 O          -4.0360   10.8057    6.0979 O.2     1  UNL1        0.0000
     40 C          -0.6212   11.9740    7.2709 C.ar    1  UNL1        0.0000
     41 C           0.3200   12.7782    6.5959 C.ar    1  UNL1        0.0000
     42 H           0.9797   12.2999    5.8880 H       1  UNL1        0.0000
     43 C           0.3910   14.1322    6.8287 C.ar    1  UNL1        0.0000
     44 H           1.1197   14.7273    6.3002 H       1  UNL1        0.0000
     45 C          -0.4648   14.7337    7.7428 C.ar    1  UNL1        0.0000
     46 H          -0.4045   15.7937    7.9290 H       1  UNL1        0.0000
     47 C          -1.4097   13.9651    8.4027 C.ar    1  UNL1        0.0000
     48 H          -2.0940   14.4375    9.0926 H       1  UNL1        0.0000
     49 C          -1.5054   12.6027    8.1805 C.ar    1  UNL1        0.0000
     50 C          -2.6081   11.7926    8.7957 C.3     1  UNL1        0.0000
     51 H          -3.3190   11.5508    7.9917 H       1  UNL1        0.0000
     52 H          -3.1304   12.3947    9.5479 H       1  UNL1        0.0000
     53 C          -1.4215   10.6786   10.6656 C.3     1  UNL1        0.0000
     54 H          -1.8300   11.5028   11.2588 H       1  UNL1        0.0000
     55 H          -1.5217    9.7455   11.2248 H       1  UNL1        0.0000
     56 C           0.0445   10.9139   10.3497 C.3     1  UNL1        0.0000
     57 H           0.6516   10.8679   11.2603 H       1  UNL1        0.0000
     58 H           0.1725   11.9033    9.8988 H       1  UNL1        0.0000
     59 C           1.8134   10.2503    8.8677 C.3     1  UNL1        0.0000
     60 H           2.0418    9.6345    7.9916 H       1  UNL1        0.0000
     61 H           1.8287   11.2967    8.5511 H       1  UNL1        0.0000
     62 C           2.8788    9.9760    9.8997 C.2     1  UNL1        0.0000
     63 C           3.8980   10.8583   10.1596 C.2     1  UNL1        0.0000
     64 H           3.9191   11.8137    9.6541 H       1  UNL1        0.0000
     65 C           4.9133   10.5313   11.0563 C.3     1  UNL1        0.0000
     66 H           5.7057   11.2368   11.2487 H       1  UNL1        0.0000
     67 C           4.9090    9.2916   11.6943 C.2     1  UNL1        0.0000
     68 H           5.7043    9.0450   12.3811 H       1  UNL1        0.0000
     69 C           3.9066    8.3878   11.4583 C.2     1  UNL1        0.0000
     70 H           3.8811    7.4288   11.9521 H       1  UNL1        0.0000
     71 C           2.8343    8.6923   10.5635 C.2     1  UNL1        0.0000
     72 N          -2.1583   10.5219    9.3969 N.4     1  UNL1        0.0000
     73 H          -3.0027   10.0010    9.6346 H       1  UNL1        0.0000
     74 N           0.4763    9.8973    9.3800 N.4     1  UNL1        0.0000
     75 H           0.6666    8.9958    9.8883 H       1  UNL1        0.0000
     76 O          -0.6300   10.6882    7.0426 O.3     1  UNL1        0.0000
     77 O           1.8736    7.8948   10.3619 O.2     1  UNL1        0.0000
@<TRIPOS>BOND
     1    30    29    1
     2    32    31    1
     3    29    31    2
     4    29    27    1
     5    31    33    1
     6    19    18    1
     7    16    15    1
     8    28    27    1
     9    17    15    1
    10    27    25    1
    11    15    18    1
    12    15    34    1
    13    42    41    1
    14    33    39    2
    15    33    24    1
    16    18    20    1
    17    18    36    1
    18    44    43    1
    19    25    24    2
    20    25    26    1
    21    24    21    1
    22    37    36    1
    23    41    43   ar
    24    41    40   ar
    25    35    34    1
    26    43    45   ar
    27    14    12    1
    28    76    40    1
    29    76     1    1
    30    34    12    1
    31    34     1    1
    32    36    21    1
    33    36     1    1
    34    40    49   ar
    35    10     9    1
    36    21    23    1
    37    21    22    1
    38    12    11    1
    39    12    13    1
    40    45    46    1
    41    45    47   ar
    42    60    59    1
    43    51    50    1
    44     9    11   ar
    45     9     7   ar
    46    49    47   ar
    47    49    50    1
    48     1    74    1
    49     1    72    1
    50     1    38    1
    51    11     2   ar
    52    47    48    1
    53     8     7    1
    54    61    59    1
    55     7     5   ar
    56    50    72    1
    57    50    52    1
    58    59    74    1
    59    59    62    1
    60     2    38    1
    61     2     3   ar
    62    74    75    1
    63    74    56    1
    64    72    73    1
    65    72    53    1
    66     5     3   ar
    67     5     6    1
    68    64    63    1
    69     3     4    1
    70    58    56    1
    71    62    63    2
    72    62    71    1
    73    63    65    1
    74    56    53    1
    75    56    57    1
    76    77    71    2
    77    71    69    1
    78    53    55    1
    79    53    54    1
    80    65    66    1
    81    65    67    1
    82    69    67    2
    83    69    70    1
    84    67    68    1
