@<TRIPOS>MOLECULE
CSD_code = QAFJIT | q = 1 | S = 0 | Stoichiometry = C28H42CoN4O4(1+) | MND = 6
 79 84 0 0 0
SMALL
GASTEIGER

@<TRIPOS>ATOM
      1 CO          3.5546   -1.7254    8.3538 Co.oh   1  UNL1        0.0000
      2 N           2.7348   -0.2413    9.2844 N.3     1  UNL1        0.0000
      3 O           4.7315   -0.5543    7.4937 O.3     1  UNL1        0.0000
      4 O           5.5969    1.6342    6.4040 O.3     1  UNL1        0.0000
      5 O           2.3762   -2.8965    9.2108 O.3     1  UNL1        0.0000
      6 N           5.0455   -2.1723    9.8619 N.4     1  UNL1        0.0000
      7 O           1.4910   -5.0854   10.2817 O.3     1  UNL1        0.0000
      8 N           2.0644   -1.2769    6.8466 N.4     1  UNL1        0.0000
      9 C           1.9110   -0.3193   10.2775 C.3     1  UNL1        0.0000
     10 H           1.5108    0.6112   10.6858 H       1  UNL1        0.0000
     11 C           1.1558   -3.9279   10.9180 C.ar    1  UNL1        0.0000
     12 C           5.4135   -0.6989    6.4100 C.ar    1  UNL1        0.0000
     13 C           5.0071   -3.5931   10.2780 C.3     1  UNL1        0.0000
     14 H           5.7631   -3.7408   11.0622 H       1  UNL1        0.0000
     15 H           4.0274   -3.7904   10.7133 H       1  UNL1        0.0000
     16 C           0.6416   -1.4285   12.0665 C.ar    1  UNL1        0.0000
     17 H           0.4500   -0.4619   12.5067 H       1  UNL1        0.0000
     18 C           1.4307   -1.5007   10.8979 C.ar    1  UNL1        0.0000
     19 C           4.8198   -1.3719   11.0730 C.3     1  UNL1        0.0000
     20 H           3.8567   -1.6092   11.5193 H       1  UNL1        0.0000
     21 H           4.8513   -0.3125   10.8286 H       1  UNL1        0.0000
     22 H           5.6006   -1.5792   11.8137 H       1  UNL1        0.0000
     23 C           0.1396   -2.5649   12.6316 C.ar    1  UNL1        0.0000
     24 H          -0.4604   -2.5142   13.5256 H       1  UNL1        0.0000
     25 C           1.6945   -2.7543   10.2948 C.ar    1  UNL1        0.0000
     26 C           6.4771   -2.0293    4.6481 C.ar    1  UNL1        0.0000
     27 H           6.6744   -2.9975    4.2138 H       1  UNL1        0.0000
     28 C           6.9763   -0.8938    4.0786 C.ar    1  UNL1        0.0000
     29 H           7.5806   -0.9468    3.1877 H       1  UNL1        0.0000
     30 C           4.2431   -4.5183    8.0363 C.3     1  UNL1        0.0000
     31 H           4.4421   -5.3070    7.3021 H       1  UNL1        0.0000
     32 H           3.2351   -4.6387    8.4328 H       1  UNL1        0.0000
     33 C           5.2552   -4.6248    9.1802 C.3     1  UNL1        0.0000
     34 H           5.1691   -5.6124    9.6353 H       1  UNL1        0.0000
     35 H           6.2676   -4.5304    8.7814 H       1  UNL1        0.0000
     36 C           2.8661    1.0667    8.6752 C.3     1  UNL1        0.0000
     37 H           2.6678    1.8545    9.4106 H       1  UNL1        0.0000
     38 H           3.8734    1.1876    8.2774 H       1  UNL1        0.0000
     39 C           5.6837   -1.9543    5.8135 C.ar    1  UNL1        0.0000
     40 C           0.3980   -3.8186   12.0584 C.ar    1  UNL1        0.0000
     41 H          -0.0065   -4.6975   12.5338 H       1  UNL1        0.0000
     42 C           6.7079    0.3620    4.6426 C.ar    1  UNL1        0.0000
     43 H           7.1089    1.2401    4.1629 H       1  UNL1        0.0000
     44 C           1.8526    1.1741    7.5326 C.3     1  UNL1        0.0000
     45 H           1.9373    2.1626    7.0792 H       1  UNL1        0.0000
     46 H           0.8407    1.0780    7.9321 H       1  UNL1        0.0000
     47 C           2.1014    0.1446    6.4329 C.3     1  UNL1        0.0000
     48 H           1.3452    0.2928    5.6490 H       1  UNL1        0.0000
     49 H           3.0808    0.3438    5.9980 H       1  UNL1        0.0000
     50 C           5.9448    0.4742    5.7792 C.ar    1  UNL1        0.0000
     51 C           1.0009   -6.3122   10.7934 C.3     1  UNL1        0.0000
     52 H          -0.0967   -6.3034   10.7996 H       1  UNL1        0.0000
     53 H           1.3579   -6.4578   11.8219 H       1  UNL1        0.0000
     54 C           5.2032   -3.1346    6.4357 C.3     1  UNL1        0.0000
     55 H           5.6061   -4.0656    6.0313 H       1  UNL1        0.0000
     56 C           5.5220    3.9795    6.7492 C.3     1  UNL1        0.0000
     57 H           5.8705    4.9379    6.3769 H       1  UNL1        0.0000
     58 H           5.8618    3.8521    7.7732 H       1  UNL1        0.0000
     59 H           4.4354    3.9688    6.7385 H       1  UNL1        0.0000
     60 C           6.0666    2.8615    5.8750 C.3     1  UNL1        0.0000
     61 H           5.7157    2.9819    4.8412 H       1  UNL1        0.0000
     62 H           7.1642    2.8750    5.8782 H       1  UNL1        0.0000
     63 C           1.5149   -7.4252    9.8947 C.3     1  UNL1        0.0000
     64 H           1.1502   -8.3828   10.2532 H       1  UNL1        0.0000
     65 H           2.6016   -7.4367    9.8954 H       1  UNL1        0.0000
     66 H           1.1687   -7.2726    8.8763 H       1  UNL1        0.0000
     67 N           4.3754   -3.2111    7.4255 N.3     1  UNL1        0.0000
     68 C           6.3979   -1.8374    9.3948 C.3     1  UNL1        0.0000
     69 H           6.6476   -2.3689    8.4816 H       1  UNL1        0.0000
     70 H           7.1352   -2.0931   10.1632 H       1  UNL1        0.0000
     71 H           6.4588   -0.7709    9.1915 H       1  UNL1        0.0000
     72 C           2.2924   -2.0754    5.6348 C.3     1  UNL1        0.0000
     73 H           3.2561   -1.8368    5.1904 H       1  UNL1        0.0000
     74 H           1.5126   -1.8676    4.8931 H       1  UNL1        0.0000
     75 H           2.2614   -3.1351    5.8777 H       1  UNL1        0.0000
     76 C           0.7119   -1.6137    7.3122 C.3     1  UNL1        0.0000
     77 H           0.4614   -1.0840    8.2263 H       1  UNL1        0.0000
     78 H           0.6516   -2.6807    7.5135 H       1  UNL1        0.0000
     79 H          -0.0251   -1.3570    6.5438 H       1  UNL1        0.0000
@<TRIPOS>BOND
     1    29    28    1
     2    28    42   ar
     3    28    26   ar
     4    43    42    1
     5    27    26    1
     6    42    50   ar
     7    26    39   ar
     8    61    60    1
     9    74    72    1
    10    73    72    1
    11    72    75    1
    12    72     8    1
    13    48    47    1
    14    50     4    1
    15    50    12   ar
    16    39    12   ar
    17    39    54    1
    18    60    62    1
    19    60     4    1
    20    60    56    1
    21    49    47    1
    22    55    54    1
    23    57    56    1
    24    12     3    1
    25    47     8    1
    26    47    44    1
    27    54    67    1
    28    79    76    1
    29    59    56    1
    30    56    58    1
    31     8    76    1
    32     8     1    1
    33    45    44    1
    34    31    30    1
    35    76    78    1
    36    76    77    1
    37    67    30    1
    38    67     1    1
    39     3     1    1
    40    44    46    1
    41    44    36    1
    42    30    32    1
    43    30    33    1
    44    38    36    1
    45     1     5    1
    46     1     2    1
    47     1     6    1
    48    69    68    1
    49    36     2    1
    50    36    37    1
    51    35    33    1
    52    66    63    1
    53    33    34    1
    54    33    13    1
    55    71    68    1
    56     5    25    1
    57     2     9    1
    58    68     6    1
    59    68    70    1
    60     6    13    1
    61     6    19    1
    62    63    65    1
    63    63    64    1
    64    63    51    1
    65     9    10    1
    66     9    18    1
    67    13    15    1
    68    13    14    1
    69     7    51    1
    70     7    11    1
    71    25    18   ar
    72    25    11   ar
    73    51    52    1
    74    51    53    1
    75    21    19    1
    76    18    16   ar
    77    11    40   ar
    78    19    20    1
    79    19    22    1
    80    40    41    1
    81    40    23   ar
    82    16    17    1
    83    16    23   ar
    84    23    24    1
