@<TRIPOS>MOLECULE
CSD_code = QAFKIU | q = 0 | S = 0 | Stoichiometry = C24H30CoN5O4 | MND = 6
 64 68 0 0 0
SMALL
GASTEIGER

@<TRIPOS>ATOM
      1 CO         10.5602    1.3345    2.0331 Co.oh   1  UNL1        0.0000
      2 O           8.7889    1.2764    2.6496 O.3     1  UNL1        0.0000
      3 O           9.8759    2.4642    0.6584 O.3     1  UNL1        0.0000
      4 O          10.3092   -0.0917    0.8613 O.2     1  UNL1        0.0000
      5 O           8.1604    3.1725   -1.1697 O.3     1  UNL1        0.0000
      6 N          11.0299    2.9693    3.3221 N.4     1  UNL1        0.0000
      7 N          12.3155    1.4982    1.3447 N.3     1  UNL1        0.0000
      8 C           6.4845    0.8957    2.6839 C.ar    1  UNL1        0.0000
      9 C           7.8367    0.6298    2.1264 C.3     1  UNL1        0.0000
     10 N          10.5546   -0.8764    3.6656 N.2     1  UNL1        0.0000
     11 C           7.9686   -0.3232    1.1127 C.2     1  UNL1        0.0000
     12 H           7.0997   -0.8625    0.7759 H       1  UNL1        0.0000
     13 C           9.4134    2.8499   -1.6031 C.ar    1  UNL1        0.0000
     14 N          11.0393    0.1587    3.4041 N.2     1  UNL1        0.0000
     15 C          10.3016    2.4491   -0.5454 C.ar    1  UNL1        0.0000
     16 C          11.6287    2.0884   -0.9047 C.ar    1  UNL1        0.0000
     17 C           9.2085   -0.6369    0.5633 C.2     1  UNL1        0.0000
     18 C           6.3537    1.1650    4.0434 C.ar    1  UNL1        0.0000
     19 H           7.2368    1.1514    4.6643 H       1  UNL1        0.0000
     20 C          11.0500    4.2298    2.5770 C.3     1  UNL1        0.0000
     21 H          11.7901    4.1986    1.7815 H       1  UNL1        0.0000
     22 H          11.2768    5.0694    3.2469 H       1  UNL1        0.0000
     23 H          10.0771    4.3879    2.1178 H       1  UNL1        0.0000
     24 C           9.9989    3.0894    4.3574 C.3     1  UNL1        0.0000
     25 H           9.9441    2.1645    4.9267 H       1  UNL1        0.0000
     26 H           9.0336    3.2653    3.8908 H       1  UNL1        0.0000
     27 H          10.2296    3.9191    5.0375 H       1  UNL1        0.0000
     28 C           9.2764   -1.7369   -0.4706 C.3     1  UNL1        0.0000
     29 H          10.2572   -1.7391   -0.9383 H       1  UNL1        0.0000
     30 H           8.5070   -1.5948   -1.2249 H       1  UNL1        0.0000
     31 H           9.1120   -2.6959    0.0174 H       1  UNL1        0.0000
     32 C           4.1123    1.1890    2.4214 C.ar    1  UNL1        0.0000
     33 H           3.2381    1.2093    1.7867 H       1  UNL1        0.0000
     34 C           9.8411    2.8670   -2.9061 C.ar    1  UNL1        0.0000
     35 H           9.1705    3.1514   -3.7025 H       1  UNL1        0.0000
     36 C           5.3526    0.9145    1.8750 C.ar    1  UNL1        0.0000
     37 H           5.4481    0.7340    0.8150 H       1  UNL1        0.0000
     38 C           5.1106    1.4257    4.5884 C.ar    1  UNL1        0.0000
     39 H           5.0167    1.6220    5.6465 H       1  UNL1        0.0000
     40 C          13.4322    1.3459    2.2450 C.3     1  UNL1        0.0000
     41 H          14.3679    1.2132    1.6862 H       1  UNL1        0.0000
     42 H          13.2569    0.4690    2.8712 H       1  UNL1        0.0000
     43 C          12.3133    2.7754    4.0233 C.3     1  UNL1        0.0000
     44 H          12.2072    1.8837    4.6437 H       1  UNL1        0.0000
     45 H          12.4895    3.6419    4.6799 H       1  UNL1        0.0000
     46 C          13.5399    2.5877    3.1343 C.3     1  UNL1        0.0000
     47 H          13.7059    3.4672    2.5085 H       1  UNL1        0.0000
     48 H          14.4079    2.4763    3.7872 H       1  UNL1        0.0000
     49 C          12.5655    1.7331    0.1015 C.3     1  UNL1        0.0000
     50 H          13.6080    1.6877   -0.2281 H       1  UNL1        0.0000
     51 C          12.0332    2.1362   -2.2546 C.ar    1  UNL1        0.0000
     52 H          13.0475    1.8570   -2.5025 H       1  UNL1        0.0000
     53 C           3.9871    1.4386    3.7784 C.ar    1  UNL1        0.0000
     54 H           3.0156    1.6469    4.2023 H       1  UNL1        0.0000
     55 C          11.1587    2.5106   -3.2334 C.ar    1  UNL1        0.0000
     56 H          11.4664    2.5369   -4.2675 H       1  UNL1        0.0000
     57 N          10.1844   -1.8824    4.0382 N.2     1  UNL1        0.0000
     58 C           7.1709    3.4845   -2.1225 C.3     1  UNL1        0.0000
     59 H           7.0481    2.6501   -2.8290 H       1  UNL1        0.0000
     60 H           7.4575    4.3814   -2.6919 H       1  UNL1        0.0000
     61 C           5.8719    3.7327   -1.3706 C.3     1  UNL1        0.0000
     62 H           5.0704    3.9483   -2.0717 H       1  UNL1        0.0000
     63 H           5.9916    4.5727   -0.6923 H       1  UNL1        0.0000
     64 H           5.6128    2.8559   -0.7838 H       1  UNL1        0.0000
@<TRIPOS>BOND
     1    56    55    1
     2    35    34    1
     3    55    34   ar
     4    55    51   ar
     5    34    13   ar
     6    59    58    1
     7    60    58    1
     8    52    51    1
     9    51    16   ar
    10    58    61    1
    11    58     5    1
    12    62    61    1
    13    13     5    1
    14    13    15   ar
    15    61    64    1
    16    61    63    1
    17    30    28    1
    18    29    28    1
    19    16    15   ar
    20    16    49    1
    21    15     3    1
    22    28    31    1
    23    28    17    1
    24    50    49    1
    25    49     7    1
    26    17     4    1
    27    17    11    2
    28     3     1    1
    29    12    11    1
    30    37    36    1
    31     4     1    1
    32    11     9    1
    33     7     1    1
    34     7    40    1
    35    41    40    1
    36    21    20    1
    37    33    32    1
    38    36    32   ar
    39    36     8   ar
    40     1     2    1
    41     1     6    1
    42     1    14    1
    43    23    20    1
    44     9     2    1
    45     9     8    1
    46    40    42    1
    47    40    46    1
    48    32    53   ar
    49    47    46    1
    50    20    22    1
    51    20     6    1
    52     8    18   ar
    53    46    48    1
    54    46    43    1
    55     6    43    1
    56     6    24    1
    57    14    10    2
    58    10    57    2
    59    53    54    1
    60    53    38   ar
    61    26    24    1
    62    43    44    1
    63    43    45    1
    64    18    38   ar
    65    18    19    1
    66    24    25    1
    67    24    27    1
    68    38    39    1
