@<TRIPOS>MOLECULE
CSD_code = QIGKIA | q = 0 | S = 0 | Stoichiometry = C20H24CoN5O3 | MND = 6
 53 57 0 0 0
SMALL
GASTEIGER

@<TRIPOS>ATOM
      1 CO          3.5652    0.2946    2.8026 Co.oh   1  UNL1        0.0000
      2 O           3.2341   -0.8956    1.4403 O.3     1  UNL1        0.0000
      3 O           2.2209    1.4232    2.0115 O.3     1  UNL1        0.0000
      4 O           2.2634   -0.5949    3.8074 O.3     1  UNL1        0.0000
      5 N           3.8692    1.6246    4.3966 N.4     1  UNL1        0.0000
      6 N           4.8451    1.2677    1.8413 N.3     1  UNL1        0.0000
      7 N           4.8915   -0.7981    3.4794 N.2     1  UNL1        0.0000
      8 N           4.9372   -1.9708    3.4778 N.2     1  UNL1        0.0000
      9 N           5.1441   -3.0819    3.5567 N.2     1  UNL1        0.0000
     10 C           4.0015   -1.1064    0.4290 C.ar    1  UNL1        0.0000
     11 C           3.7980   -2.3080   -0.2954 C.ar    1  UNL1        0.0000
     12 H           3.0341   -2.9737    0.0753 H       1  UNL1        0.0000
     13 C           4.5475   -2.6196   -1.3951 C.ar    1  UNL1        0.0000
     14 H           4.3771   -3.5491   -1.9184 H       1  UNL1        0.0000
     15 C           5.5488   -1.7490   -1.8310 C.ar    1  UNL1        0.0000
     16 H           6.1637   -2.0111   -2.6784 H       1  UNL1        0.0000
     17 C           5.7531   -0.5654   -1.1706 C.ar    1  UNL1        0.0000
     18 H           6.5545    0.0757   -1.5048 H       1  UNL1        0.0000
     19 C           4.9921   -0.1953   -0.0455 C.ar    1  UNL1        0.0000
     20 C           5.2323    1.0589    0.6218 C.3     1  UNL1        0.0000
     21 C           5.2169    2.4869    2.5311 C.3     1  UNL1        0.0000
     22 H           4.5286    3.2964    2.2561 H       1  UNL1        0.0000
     23 H           6.2356    2.7950    2.2725 H       1  UNL1        0.0000
     24 C           5.1594    2.2179    4.0321 C.3     1  UNL1        0.0000
     25 H           5.9364    1.4894    4.2698 H       1  UNL1        0.0000
     26 H           5.3448    3.1422    4.5980 H       1  UNL1        0.0000
     27 C           3.9826    0.9677    5.7007 C.3     1  UNL1        0.0000
     28 H           3.0280    0.5162    5.9602 H       1  UNL1        0.0000
     29 H           4.2679    1.6898    6.4750 H       1  UNL1        0.0000
     30 H           4.7249    0.1757    5.6451 H       1  UNL1        0.0000
     31 C           2.8483    2.6657    4.5115 C.3     1  UNL1        0.0000
     32 H           1.8908    2.2110    4.7605 H       1  UNL1        0.0000
     33 H           2.7365    3.2032    3.5730 H       1  UNL1        0.0000
     34 H           3.1145    3.3805    5.3013 H       1  UNL1        0.0000
     35 C           5.9543    2.1405   -0.1421 C.3     1  UNL1        0.0000
     36 H           5.8394    1.9954   -1.2110 H       1  UNL1        0.0000
     37 H           7.0174    2.1353    0.0997 H       1  UNL1        0.0000
     38 H           5.5484    3.1179    0.1097 H       1  UNL1        0.0000
     39 C           0.9989    1.1825    1.9052 C.3     1  UNL1        0.0000
     40 C           0.3065    0.1543    2.6140 C.ar    1  UNL1        0.0000
     41 C          -1.0789   -0.0547    2.4337 C.ar    1  UNL1        0.0000
     42 H          -1.6122    0.5490    1.7160 H       1  UNL1        0.0000
     43 C          -1.7648   -1.0012    3.1411 C.ar    1  UNL1        0.0000
     44 H          -2.8232   -1.1424    2.9833 H       1  UNL1        0.0000
     45 C          -1.0849   -1.7951    4.0760 C.ar    1  UNL1        0.0000
     46 H          -1.6285   -2.5436    4.6346 H       1  UNL1        0.0000
     47 C           0.2542   -1.6351    4.2761 C.ar    1  UNL1        0.0000
     48 H           0.7967   -2.2476    4.9800 H       1  UNL1        0.0000
     49 C           1.0150   -0.6750    3.5487 C.ar    1  UNL1        0.0000
     50 C           0.2277    2.1007    0.9813 C.3     1  UNL1        0.0000
     51 H          -0.5704    2.6098    1.5168 H       1  UNL1        0.0000
     52 H          -0.2059    1.5281    0.1647 H       1  UNL1        0.0000
     53 H           0.9115    2.8386    0.5674 H       1  UNL1        0.0000
@<TRIPOS>BOND
     1    16    15    1
     2    14    13    1
     3    15    13   ar
     4    15    17   ar
     5    18    17    1
     6    13    11   ar
     7    36    35    1
     8    17    19   ar
     9    11    12    1
    10    11    10   ar
    11    35    37    1
    12    35    38    1
    13    35    20    1
    14    19    10   ar
    15    19    20    1
    16    52    50    1
    17    10     2    1
    18    53    50    1
    19    20     6    1
    20    50    51    1
    21    50    39    1
    22     2     1    1
    23    42    41    1
    24     6    21    1
    25     6     1    1
    26    39     3    1
    27    39    40    1
    28     3     1    1
    29    22    21    1
    30    23    21    1
    31    41    40   ar
    32    41    43   ar
    33    21    24    1
    34    40    49   ar
    35     1     7    1
    36     1     4    1
    37     1     5    1
    38    44    43    1
    39    43    45   ar
    40     8     7    2
    41     8     9    2
    42    49     4    1
    43    49    47   ar
    44    33    31    1
    45    24    25    1
    46    24     5    1
    47    24    26    1
    48    45    47   ar
    49    45    46    1
    50    47    48    1
    51     5    31    1
    52     5    27    1
    53    31    32    1
    54    31    34    1
    55    30    27    1
    56    27    28    1
    57    27    29    1
