@<TRIPOS>MOLECULE
CSD_code = RULFAG | q = 1 | S = 0 | Stoichiometry = C22H30CoN4O4(1+) | MND = 6
 61 66 0 0 0
SMALL
GASTEIGER

@<TRIPOS>ATOM
      1 CO          0.5909    0.0000   28.1074 Co.oh   1  UNL1        0.0000
      2 N          -0.7454   -0.8584   26.8879 N.4     1  UNL1        0.0000
      3 C          -1.9776   -0.1369   26.5225 C.3     1  UNL1        0.0000
      4 C          -1.6810    1.2215   25.8953 C.3     1  UNL1        0.0000
      5 C          -0.8684    2.1228   26.8333 C.3     1  UNL1        0.0000
      6 N           0.4517    1.5553   26.9968 N.3     1  UNL1        0.0000
      7 C           1.4093    2.0387   26.2819 C.3     1  UNL1        0.0000
      8 C           2.6889    1.4482   26.0901 C.ar    1  UNL1        0.0000
      9 C           3.7232    2.1670   25.4569 C.ar    1  UNL1        0.0000
     10 C           4.9153    1.5608   25.1764 C.ar    1  UNL1        0.0000
     11 C           5.1191    0.2142   25.5026 C.ar    1  UNL1        0.0000
     12 C           4.1302   -0.5213   26.1128 C.ar    1  UNL1        0.0000
     13 O           4.2273   -1.8272   26.4961 O.3     1  UNL1        0.0000
     14 C           5.3988   -2.5358   26.1611 C.3     1  UNL1        0.0000
     15 C           2.8712    0.0837   26.4280 C.ar    1  UNL1        0.0000
     16 O           1.9508   -0.6448   26.9689 O.3     1  UNL1        0.0000
     17 H          -2.5737    0.0047   27.4256 H       1  UNL1        0.0000
     18 H          -2.5623   -0.7382   25.8158 H       1  UNL1        0.0000
     19 H          -2.6276    1.7107   25.6657 H       1  UNL1        0.0000
     20 H          -1.1308    1.0865   24.9601 H       1  UNL1        0.0000
     21 H          -1.3575    2.1749   27.8075 H       1  UNL1        0.0000
     22 H          -0.8028    3.1272   26.4026 H       1  UNL1        0.0000
     23 H           1.2264    2.9577   25.7222 H       1  UNL1        0.0000
     24 H           3.5590    3.2035   25.2052 H       1  UNL1        0.0000
     25 H           5.7104    2.1089   24.6978 H       1  UNL1        0.0000
     26 H           6.0711   -0.2356   25.2715 H       1  UNL1        0.0000
     27 H           5.2386   -3.5520   26.5163 H       1  UNL1        0.0000
     28 H           6.2783   -2.1132   26.6568 H       1  UNL1        0.0000
     29 H           5.5619   -2.5512   25.0798 H       1  UNL1        0.0000
     30 H          -1.0115   -1.7626   27.2800 H       1  UNL1        0.0000
     31 H          -0.2158   -1.0590   26.0354 H       1  UNL1        0.0000
     32 N           1.9273    0.8585   29.3269 N.4     1  UNL1        0.0000
     33 C           3.1595    0.1370   29.6924 C.3     1  UNL1        0.0000
     34 C           2.8629   -1.2214   30.3196 C.3     1  UNL1        0.0000
     35 C           2.0504   -2.1227   29.3816 C.3     1  UNL1        0.0000
     36 N           0.7303   -1.5552   29.2180 N.3     1  UNL1        0.0000
     37 C          -0.2274   -2.0387   29.9329 C.3     1  UNL1        0.0000
     38 C          -1.5070   -1.4482   30.1248 C.ar    1  UNL1        0.0000
     39 C          -2.5412   -2.1670   30.7580 C.ar    1  UNL1        0.0000
     40 C          -3.7334   -1.5609   31.0384 C.ar    1  UNL1        0.0000
     41 C          -3.9373   -0.2143   30.7122 C.ar    1  UNL1        0.0000
     42 C          -2.9483    0.5213   30.1020 C.ar    1  UNL1        0.0000
     43 O          -3.0455    1.8271   29.7187 O.3     1  UNL1        0.0000
     44 C          -4.2170    2.5357   30.0537 C.3     1  UNL1        0.0000
     45 C          -1.6893   -0.0837   29.7868 C.ar    1  UNL1        0.0000
     46 O          -0.7689    0.6448   29.2459 O.3     1  UNL1        0.0000
     47 H           3.7556   -0.0046   28.7893 H       1  UNL1        0.0000
     48 H           3.7442    0.7383   30.3991 H       1  UNL1        0.0000
     49 H           3.8095   -1.7106   30.5492 H       1  UNL1        0.0000
     50 H           2.3127   -1.0864   31.2547 H       1  UNL1        0.0000
     51 H           2.5395   -2.1748   28.4074 H       1  UNL1        0.0000
     52 H           1.9848   -3.1271   29.8123 H       1  UNL1        0.0000
     53 H          -0.0445   -2.9577   30.4927 H       1  UNL1        0.0000
     54 H          -2.3771   -3.2035   31.0097 H       1  UNL1        0.0000
     55 H          -4.5285   -2.1090   31.5170 H       1  UNL1        0.0000
     56 H          -4.8893    0.2355   30.9432 H       1  UNL1        0.0000
     57 H          -4.0569    3.5519   29.6984 H       1  UNL1        0.0000
     58 H          -5.0966    2.1131   29.5579 H       1  UNL1        0.0000
     59 H          -4.3801    2.5511   31.1349 H       1  UNL1        0.0000
     60 H           2.1933    1.7627   28.9348 H       1  UNL1        0.0000
     61 H           1.3977    1.0591   30.1795 H       1  UNL1        0.0000
@<TRIPOS>BOND
     1    25    10    1
     2    20     4    1
     3    29    14    1
     4    10     9   ar
     5    10    11   ar
     6    24     9    1
     7    26    11    1
     8     9     8   ar
     9    11    12   ar
    10    19     4    1
    11    23     7    1
    12    18     3    1
    13     4     3    1
    14     4     5    1
    15    31     2    1
    16     8     7    1
    17     8    15   ar
    18    12    15   ar
    19    12    13    1
    20    14    13    1
    21    14    27    1
    22    14    28    1
    23     7     6    1
    24    22     5    1
    25    15    16    1
    26     3     2    1
    27     3    17    1
    28     5     6    1
    29     5    21    1
    30     2    30    1
    31     2     1    1
    32    16     1    1
    33     6     1    1
    34     1    36    1
    35     1    46    1
    36     1    32    1
    37    51    35    1
    38    47    33    1
    39    60    32    1
    40    36    35    1
    41    36    37    1
    42    46    45    1
    43    32    33    1
    44    32    61    1
    45    35    52    1
    46    35    34    1
    47    58    44    1
    48    33    34    1
    49    33    48    1
    50    57    44    1
    51    43    44    1
    52    43    42    1
    53    45    42   ar
    54    45    38   ar
    55    37    38    1
    56    37    53    1
    57    44    59    1
    58    42    41   ar
    59    38    39   ar
    60    34    49    1
    61    34    50    1
    62    41    56    1
    63    41    40   ar
    64    39    54    1
    65    39    40   ar
    66    40    55    1
