@<TRIPOS>MOLECULE
CSD_code = SACVUQ | q = 1 | S = 0 | Stoichiometry = C34H22CoN4O6(1+) | MND = 6
 67 76 0 0 0
SMALL
GASTEIGER

@<TRIPOS>ATOM
      1 CO          8.1351    6.7968   15.0143 Co.oh   1  UNL1        0.0000
      2 O           8.6879    5.4777   13.8140 O.3     1  UNL1        0.0000
      3 O           6.2837    1.1400    9.9297 O.2     1  UNL1        0.0000
      4 O           4.4167    2.1698   10.5942 O.3     1  UNL1        0.0000
      5 O           7.6590    5.4844   16.2542 O.3     1  UNL1        0.0000
      6 O          10.3094    1.4228   20.2761 O.2     1  UNL1        0.0000
      7 O          12.1125    2.5391   19.5759 O.3     1  UNL1        0.0000
      8 N           7.5651    8.1404   16.2567 N.pl3   1  UNL1        0.0000
      9 N           6.3196    6.7225   14.4724 N.pl3   1  UNL1        0.0000
     10 N           8.6268    8.1330   13.7317 N.pl3   1  UNL1        0.0000
     11 N           9.9510    6.8457   15.5573 N.pl3   1  UNL1        0.0000
     12 C           8.2447    8.7935   17.1760 C.2     1  UNL1        0.0000
     13 H           9.3007    8.5798   17.2610 H       1  UNL1        0.0000
     14 C           7.6607    9.7372   18.0294 C.2     1  UNL1        0.0000
     15 H           8.2755   10.2318   18.7637 H       1  UNL1        0.0000
     16 C           6.3235   10.0152   17.9163 C.2     1  UNL1        0.0000
     17 H           5.8446   10.7404   18.5564 H       1  UNL1        0.0000
     18 C           5.5634    9.3337   16.9451 C.2     1  UNL1        0.0000
     19 C           4.1852    9.5435   16.7351 C.2     1  UNL1        0.0000
     20 H           3.6671   10.2658   17.3457 H       1  UNL1        0.0000
     21 C           3.5249    8.8387   15.7638 C.2     1  UNL1        0.0000
     22 H           2.4723    9.0077   15.5980 H       1  UNL1        0.0000
     23 C           4.1835    7.8889   14.9740 C.2     1  UNL1        0.0000
     24 H           3.6145    7.3672   14.2209 H       1  UNL1        0.0000
     25 C           5.5307    7.6370   15.1575 C.2     1  UNL1        0.0000
     26 C           6.2368    8.3848   16.1368 C.3     1  UNL1        0.0000
     27 C           5.8025    5.7904   13.7204 C.3     1  UNL1        0.0000
     28 H           4.7205    5.7380   13.6187 H       1  UNL1        0.0000
     29 C           6.5254    4.8182   13.0035 C.ar    1  UNL1        0.0000
     30 C           5.8155    3.9118   12.1879 C.ar    1  UNL1        0.0000
     31 H           4.7394    3.9805   12.1369 H       1  UNL1        0.0000
     32 C           6.4672    2.9519   11.4548 C.ar    1  UNL1        0.0000
     33 C           7.8754    2.8648   11.5237 C.ar    1  UNL1        0.0000
     34 H           8.3632    2.0990   10.9393 H       1  UNL1        0.0000
     35 C           8.5921    3.7169   12.3082 C.ar    1  UNL1        0.0000
     36 H           9.6670    3.6518   12.3722 H       1  UNL1        0.0000
     37 C           7.9555    4.7218   13.0878 C.ar    1  UNL1        0.0000
     38 C           5.7464    1.9936   10.5862 C.2     1  UNL1        0.0000
     39 C           7.9113    8.7163   12.7929 C.2     1  UNL1        0.0000
     40 H           6.8702    8.4369   12.7137 H       1  UNL1        0.0000
     41 C           8.4395    9.6676   11.9120 C.2     1  UNL1        0.0000
     42 H           7.7977   10.1023   11.1631 H       1  UNL1        0.0000
     43 C           9.7574   10.0286   12.0172 C.2     1  UNL1        0.0000
     44 H          10.1931   10.7622   11.3563 H       1  UNL1        0.0000
     45 C          10.5551    9.4225   13.0080 C.2     1  UNL1        0.0000
     46 C          11.9182    9.7196   13.2111 C.3     1  UNL1        0.0000
     47 H          12.3934   10.4533   12.5796 H       1  UNL1        0.0000
     48 C          12.6180    9.0831   14.2018 C.2     1  UNL1        0.0000
     49 H          13.6588    9.3184   14.3617 H       1  UNL1        0.0000
     50 C          12.0158    8.1196   15.0194 C.2     1  UNL1        0.0000
     51 H          12.6141    7.6541   15.7865 H       1  UNL1        0.0000
     52 C          10.6858    7.7839   14.8448 C.2     1  UNL1        0.0000
     53 C           9.9380    8.4595   13.8441 C.2     1  UNL1        0.0000
     54 C          10.5204    5.9709   16.3397 C.3     1  UNL1        0.0000
     55 H          11.6032    5.9866   16.4448 H       1  UNL1        0.0000
     56 C           9.8547    4.9804   17.0863 C.ar    1  UNL1        0.0000
     57 C          10.6152    4.1441   17.9305 C.ar    1  UNL1        0.0000
     58 H          11.6851    4.2791   17.9809 H       1  UNL1        0.0000
     59 C          10.0202    3.1700   18.6925 C.ar    1  UNL1        0.0000
     60 C           8.6200    2.9960   18.6245 C.ar    1  UNL1        0.0000
     61 H           8.1771    2.2209   19.2319 H       1  UNL1        0.0000
     62 C           7.8559    3.7789   17.8132 C.ar    1  UNL1        0.0000
     63 H           6.7870    3.6473   17.7501 H       1  UNL1        0.0000
     64 C           8.4332    4.7960   17.0038 C.ar    1  UNL1        0.0000
     65 C          10.7954    2.2853   19.5918 C.2     1  UNL1        0.0000
     66 H           3.9967    1.5148   10.0142 H       1  UNL1        0.0000
     67 H          12.5700    1.9291   20.1762 H       1  UNL1        0.0000
@<TRIPOS>BOND
     1     3    38    2
     2    66     4    1
     3    38     4    1
     4    38    32    1
     5    34    33    1
     6    42    41    1
     7    44    43    1
     8    32    33   ar
     9    32    30   ar
    10    33    35   ar
    11    41    43    1
    12    41    39    2
    13    43    45    2
    14    31    30    1
    15    30    29   ar
    16    35    36    1
    17    35    37   ar
    18    47    46    1
    19    40    39    1
    20    39    10    1
    21    29    37   ar
    22    29    27    1
    23    45    46    1
    24    45    53    1
    25    37     2    1
    26    46    48    1
    27    28    27    1
    28    27     9    1
    29    10    53    1
    30    10     1    1
    31     2     1    1
    32    53    52    2
    33    48    49    1
    34    48    50    2
    35    24    23    1
    36     9     1    1
    37     9    25    1
    38    52    50    1
    39    52    11    1
    40    23    25    2
    41    23    21    1
    42     1    11    1
    43     1     5    1
    44     1     8    1
    45    50    51    1
    46    25    26    1
    47    11    54    1
    48    22    21    1
    49    21    19    2
    50    26     8    1
    51    26    18    1
    52     5    64    1
    53     8    12    1
    54    54    55    1
    55    54    56    1
    56    19    18    1
    57    19    20    1
    58    18    16    2
    59    64    56   ar
    60    64    62   ar
    61    56    57   ar
    62    12    13    1
    63    12    14    2
    64    63    62    1
    65    62    60   ar
    66    16    14    1
    67    16    17    1
    68    57    58    1
    69    57    59   ar
    70    14    15    1
    71    60    59   ar
    72    60    61    1
    73    59    65    1
    74     7    65    1
    75     7    67    1
    76    65     6    2
