@<TRIPOS>MOLECULE
CSD_code = SAWVUK | q = 1 | S = 0 | Stoichiometry = C34H20CoN6O8(1+) | MND = 6
 69 78 0 0 0
SMALL
GASTEIGER

@<TRIPOS>ATOM
      1 CO          1.9273    7.2237   10.6689 Co.oh   1  UNL1        0.0000
      2 O           3.0479    8.2736   11.7564 O.3     1  UNL1        0.0000
      3 O           5.1321    9.0440   11.8939 O.2     1  UNL1        0.0000
      4 O           5.9909    7.3856    2.8956 O.2     1  UNL1        0.0000
      5 O           8.0693    7.7600    2.4876 O.2     1  UNL1        0.0000
      6 O           1.3418    8.7138    9.6807 O.3     1  UNL1        0.0000
      7 O          -0.2481   10.2717    9.6394 O.2     1  UNL1        0.0000
      8 O          -1.6949    8.4945   18.5379 O.2     1  UNL1        0.0000
      9 O          -3.4176    9.6806   19.0395 O.2     1  UNL1        0.0000
     10 N           1.1206    6.1201    9.2995 N.pl3   1  UNL1        0.0000
     11 N           3.3832    7.0829    9.6190 N.pl3   1  UNL1        0.0000
     12 N           7.1404    7.5651    3.2317 N.pl3   1  UNL1        0.0000
     13 N           2.2003    5.7896   11.9383 N.pl3   1  UNL1        0.0000
     14 N           0.5269    7.6089   11.7339 N.pl3   1  UNL1        0.0000
     15 N          -2.6616    9.1660   18.2532 N.pl3   1  UNL1        0.0000
     16 C          -0.1308    5.6776    9.2294 C.3     1  UNL1        0.0000
     17 H          -0.7583    5.8483   10.0936 H       1  UNL1        0.0000
     18 C          -0.6366    5.0289    8.1152 C.2     1  UNL1        0.0000
     19 H          -1.6616    4.6964    8.1068 H       1  UNL1        0.0000
     20 C           0.1924    4.8289    7.0215 C.2     1  UNL1        0.0000
     21 H          -0.1727    4.3351    6.1347 H       1  UNL1        0.0000
     22 C           1.4986    5.2833    7.0863 C.2     1  UNL1        0.0000
     23 H           2.1686    5.1504    6.2527 H       1  UNL1        0.0000
     24 C           1.9379    5.9305    8.2352 C.2     1  UNL1        0.0000
     25 C           3.2685    6.5123    8.4132 C.3     1  UNL1        0.0000
     26 C           4.3183    6.5799    7.5096 C.2     1  UNL1        0.0000
     27 H           4.2424    6.0996    6.5477 H       1  UNL1        0.0000
     28 C           5.4800    7.2847    7.8521 C.2     1  UNL1        0.0000
     29 C           5.5334    7.9148    9.1014 C.2     1  UNL1        0.0000
     30 H           6.3716    8.5226    9.4030 H       1  UNL1        0.0000
     31 C           4.4547    7.7939    9.9569 C.2     1  UNL1        0.0000
     32 C           4.2523    8.4553   11.3230 C.2     1  UNL1        0.0000
     33 C           6.5977    7.3833    6.9075 C.ar    1  UNL1        0.0000
     34 C           6.3558    7.4358    5.5378 C.ar    1  UNL1        0.0000
     35 H           5.3539    7.4420    5.1360 H       1  UNL1        0.0000
     36 C           7.4202    7.5283    4.6566 C.ar    1  UNL1        0.0000
     37 C           8.7335    7.5738    5.1037 C.ar    1  UNL1        0.0000
     38 H           9.5366    7.6475    4.3867 H       1  UNL1        0.0000
     39 C           8.9732    7.5202    6.4663 C.ar    1  UNL1        0.0000
     40 H           9.9866    7.5502    6.8340 H       1  UNL1        0.0000
     41 C           7.9199    7.4278    7.3595 C.ar    1  UNL1        0.0000
     42 H           8.1254    7.3665    8.4171 H       1  UNL1        0.0000
     43 C           3.1601    4.8700   11.9490 C.3     1  UNL1        0.0000
     44 H           3.8085    4.8308   11.0842 H       1  UNL1        0.0000
     45 C           3.3481    3.9930   13.0040 C.2     1  UNL1        0.0000
     46 H           4.1472    3.2709   12.9659 H       1  UNL1        0.0000
     47 C           2.5021    4.0714   14.1003 C.2     1  UNL1        0.0000
     48 H           2.6272    3.4094   14.9426 H       1  UNL1        0.0000
     49 C           1.4965    5.0228   14.0964 C.2     1  UNL1        0.0000
     50 H           0.8243    5.1152   14.9337 H       1  UNL1        0.0000
     51 C           1.3687    5.8740   13.0049 C.2     1  UNL1        0.0000
     52 C           0.3946    6.9604   12.8980 C.3     1  UNL1        0.0000
     53 C          -0.5323    7.3937   13.8339 C.2     1  UNL1        0.0000
     54 H          -0.6611    6.8603   14.7615 H       1  UNL1        0.0000
     55 C          -1.2956    8.5392   13.5714 C.2     1  UNL1        0.0000
     56 C          -1.0841    9.2184   12.3653 C.2     1  UNL1        0.0000
     57 H          -1.5932   10.1388   12.1272 H       1  UNL1        0.0000
     58 C          -0.1535    8.7210   11.4727 C.2     1  UNL1        0.0000
     59 C           0.3111    9.3374   10.1502 C.2     1  UNL1        0.0000
     60 C          -2.2639    9.0320   14.5567 C.ar    1  UNL1        0.0000
     61 C          -2.0168    8.8803   15.9182 C.ar    1  UNL1        0.0000
     62 H          -1.1057    8.4331   16.2858 H       1  UNL1        0.0000
     63 C          -2.9368    9.3527   16.8392 C.ar    1  UNL1        0.0000
     64 C          -4.1075    9.9831   16.4408 C.ar    1  UNL1        0.0000
     65 H          -4.7994   10.3404   17.1880 H       1  UNL1        0.0000
     66 C          -4.3534   10.1323   15.0864 C.ar    1  UNL1        0.0000
     67 H          -5.2590   10.6155   14.7560 H       1  UNL1        0.0000
     68 C          -3.4438    9.6644   14.1538 C.ar    1  UNL1        0.0000
     69 H          -3.6611    9.7704   13.1021 H       1  UNL1        0.0000
@<TRIPOS>BOND
     1     5    12    2
     2     4    12    2
     3    12    36    1
     4    38    37    1
     5    36    37   ar
     6    36    34   ar
     7    37    39   ar
     8    35    34    1
     9    34    33   ar
    10    21    20    1
    11    23    22    1
    12    39    40    1
    13    39    41   ar
    14    27    26    1
    15    33    41   ar
    16    33    28    1
    17    20    22    1
    18    20    18    2
    19    22    24    2
    20    41    42    1
    21    26    28    2
    22    26    25    1
    23    28    29    1
    24    19    18    1
    25    18    16    1
    26    24    25    1
    27    24    10    1
    28    25    11    1
    29    29    30    1
    30    29    31    2
    31    16    10    1
    32    16    17    1
    33    10     1    1
    34    11    31    1
    35    11     1    1
    36     7    59    2
    37     6    59    1
    38     6     1    1
    39    31    32    1
    40    59    58    1
    41     1    14    1
    42     1     2    1
    43     1    13    1
    44    44    43    1
    45    32     2    1
    46    32     3    2
    47    58    14    1
    48    58    56    2
    49    14    52    1
    50    13    43    1
    51    13    51    1
    52    43    45    1
    53    57    56    1
    54    56    55    1
    55    52    51    1
    56    52    53    1
    57    46    45    1
    58    45    47    2
    59    51    49    2
    60    69    68    1
    61    55    53    2
    62    55    60    1
    63    53    54    1
    64    49    47    1
    65    49    50    1
    66    47    48    1
    67    68    60   ar
    68    68    66   ar
    69    60    61   ar
    70    67    66    1
    71    66    64   ar
    72    61    62    1
    73    61    63   ar
    74    64    63   ar
    75    64    65    1
    76    63    15    1
    77    15     8    2
    78    15     9    2
