@<TRIPOS>MOLECULE
CSD_code = SORJEP | q = 1 | S = 0 | Stoichiometry = C22H28Cl2CoN4O2(1+) | MND = 6
 59 64 0 0 0
SMALL
GASTEIGER

@<TRIPOS>ATOM
      1 CO          7.5468   10.0493    3.4408 Co.oh   1  UNL1        0.0000
      2 CL          5.0316    3.3802    2.6832 Cl      1  UNL1        0.0000
      3 CL         13.7008    9.1166   -0.1426 Cl      1  UNL1        0.0000
      4 O           6.7988    8.9168    2.1693 O.3     1  UNL1        0.0000
      5 O           9.1128    9.0619    3.4596 O.3     1  UNL1        0.0000
      6 N           7.0103    8.9830    4.9007 N.3     1  UNL1        0.0000
      7 N           8.3818   11.2789    4.8775 N.4     1  UNL1        0.0000
      8 H           7.6688   11.9572    5.1550 H       1  UNL1        0.0000
      9 N           8.0728   11.1240    1.9893 N.3     1  UNL1        0.0000
     10 N           5.7705   11.1058    3.3299 N.4     1  UNL1        0.0000
     11 H           5.2982   10.5128    2.6404 H       1  UNL1        0.0000
     12 C           6.2984    7.0678    3.6222 C.ar    1  UNL1        0.0000
     13 C           6.4428    7.6867    2.3481 C.ar    1  UNL1        0.0000
     14 C           6.1340    6.9102    1.2057 C.ar    1  UNL1        0.0000
     15 H           6.2476    7.3768    0.2398 H       1  UNL1        0.0000
     16 C           5.7081    5.6138    1.3118 C.ar    1  UNL1        0.0000
     17 H           5.4816    5.0419    0.4257 H       1  UNL1        0.0000
     18 C           5.5697    5.0167    2.5718 C.ar    1  UNL1        0.0000
     19 C           5.8634    5.7299    3.7050 C.ar    1  UNL1        0.0000
     20 H           5.7627    5.2678    4.6749 H       1  UNL1        0.0000
     21 C           6.6085    7.7612    4.8205 C.3     1  UNL1        0.0000
     22 H           6.4809    7.1934    5.7429 H       1  UNL1        0.0000
     23 C           7.3407    9.5363    6.1984 C.3     1  UNL1        0.0000
     24 H           7.5125    8.7477    6.9377 H       1  UNL1        0.0000
     25 H           6.5087   10.1592    6.5499 H       1  UNL1        0.0000
     26 C           8.5898   10.3939    6.0337 C.3     1  UNL1        0.0000
     27 H           9.4441    9.7512    5.8130 H       1  UNL1        0.0000
     28 H           8.7844   10.9568    6.9512 H       1  UNL1        0.0000
     29 C           9.5877   12.0569    4.5442 C.3     1  UNL1        0.0000
     30 H           9.3813   12.6196    3.6316 H       1  UNL1        0.0000
     31 H          10.3978   11.3571    4.3330 H       1  UNL1        0.0000
     32 C          10.0063   13.0314    5.6409 C.3     1  UNL1        0.0000
     33 H           9.1781   13.6780    5.9265 H       1  UNL1        0.0000
     34 H          10.8107   13.6603    5.2710 H       1  UNL1        0.0000
     35 H          10.3712   12.5156    6.5242 H       1  UNL1        0.0000
     36 C          10.1752   10.0375    1.5350 C.ar    1  UNL1        0.0000
     37 C          10.0873    9.1151    2.6173 C.ar    1  UNL1        0.0000
     38 C          11.1638    8.2090    2.7899 C.ar    1  UNL1        0.0000
     39 H          11.0955    7.5044    3.6038 H       1  UNL1        0.0000
     40 C          12.2476    8.2134    1.9557 C.ar    1  UNL1        0.0000
     41 H          13.0519    7.5106    2.1058 H       1  UNL1        0.0000
     42 C          12.3209    9.1278    0.8950 C.ar    1  UNL1        0.0000
     43 C          11.3015   10.0187    0.6865 C.ar    1  UNL1        0.0000
     44 H          11.3535   10.7176   -0.1338 H       1  UNL1        0.0000
     45 C           9.1333   10.9598    1.2717 C.3     1  UNL1        0.0000
     46 H           9.2578   11.5775    0.3819 H       1  UNL1        0.0000
     47 C           7.0479   12.0273    1.4987 C.3     1  UNL1        0.0000
     48 H           7.4902   12.9390    1.0832 H       1  UNL1        0.0000
     49 H           6.4928   11.5211    0.6996 H       1  UNL1        0.0000
     50 C           6.0947   12.3609    2.6388 C.3     1  UNL1        0.0000
     51 H           6.5717   13.0433    3.3481 H       1  UNL1        0.0000
     52 H           5.2010   12.8508    2.2395 H       1  UNL1        0.0000
     53 C           4.8171   11.2820    4.4363 C.3     1  UNL1        0.0000
     54 H           5.2167   12.0235    5.1337 H       1  UNL1        0.0000
     55 H           4.7319   10.3238    4.9529 H       1  UNL1        0.0000
     56 C           3.4247   11.7069    3.9782 C.3     1  UNL1        0.0000
     57 H           3.4188   12.7140    3.5708 H       1  UNL1        0.0000
     58 H           2.7453   11.6894    4.8256 H       1  UNL1        0.0000
     59 H           3.0429   11.0191    3.2269 H       1  UNL1        0.0000
@<TRIPOS>BOND
     1     3    42    1
     2    44    43    1
     3    15    14    1
     4    46    45    1
     5    17    16    1
     6    43    42   ar
     7    43    36   ar
     8    49    47    1
     9    42    40   ar
    10    48    47    1
    11    14    16   ar
    12    14    13   ar
    13    45    36    1
    14    45     9    1
    15    16    18   ar
    16    47     9    1
    17    47    50    1
    18    36    37   ar
    19    40    41    1
    20    40    38   ar
    21     9     1    1
    22     4    13    1
    23     4     1    1
    24    52    50    1
    25    13    12   ar
    26    18     2    1
    27    18    19   ar
    28    37    38   ar
    29    37     5    1
    30    50    10    1
    31    50    51    1
    32    11    10    1
    33    38    39    1
    34    59    56    1
    35    10     1    1
    36    10    53    1
    37     1     5    1
    38     1     7    1
    39     1     6    1
    40    57    56    1
    41    12    19   ar
    42    12    21    1
    43    30    29    1
    44    19    20    1
    45    56    53    1
    46    56    58    1
    47    31    29    1
    48    53    55    1
    49    53    54    1
    50    29     7    1
    51    29    32    1
    52    21     6    1
    53    21    22    1
    54     7     8    1
    55     7    26    1
    56     6    23    1
    57    34    32    1
    58    32    33    1
    59    32    35    1
    60    27    26    1
    61    26    23    1
    62    26    28    1
    63    23    25    1
    64    23    24    1
