@<TRIPOS>MOLECULE
CSD_code = TARZIX | q = 1 | S = 0 | Stoichiometry = C20H22CoN8O4(1+) | MND = 6
 55 60 0 0 0
SMALL
GASTEIGER

@<TRIPOS>ATOM
      1 CO         12.6495    9.4512    7.8052 Co.oh   1  UNL1        0.0000
      2 N          13.9132    8.1997    7.4317 N.3     1  UNL1        0.0000
      3 O          11.2449   10.9237    7.6814 O.2     1  UNL1        0.0000
      4 O          14.1038   10.7631    8.3676 O.2     1  UNL1        0.0000
      5 N          12.7022    9.7619    6.0078 N.pl3   1  UNL1        0.0000
      6 O          10.8122    7.8076    6.7206 O.3     1  UNL1        0.0000
      7 O          14.4179    7.4863    8.3200 O.3     1  UNL1        0.0000
      8 C          14.2646    8.1345    6.1490 C.2     1  UNL1        0.0000
      9 N          12.5998    9.1931    9.6109 N.pl3   1  UNL1        0.0000
     10 C          15.2954    7.1696    5.6658 C.3     1  UNL1        0.0000
     11 H          15.6695    6.5992    6.5129 H       1  UNL1        0.0000
     12 H          16.1237    7.6949    5.1930 H       1  UNL1        0.0000
     13 H          14.8635    6.4855    4.9372 H       1  UNL1        0.0000
     14 N          11.8871   10.6666    5.4890 N.2     1  UNL1        0.0000
     15 C          13.5566    9.0377    5.3191 C.2     1  UNL1        0.0000
     16 N          11.3398    8.1919    7.7821 N.3     1  UNL1        0.0000
     17 C          15.4037   11.2906   11.7447 C.2     1  UNL1        0.0000
     18 H          14.7355   10.6580   12.3036 H       1  UNL1        0.0000
     19 C          11.5316    7.9721   11.4805 C.3     1  UNL1        0.0000
     20 H          12.2096    8.5624   12.0899 H       1  UNL1        0.0000
     21 H          11.7371    6.9135   11.6316 H       1  UNL1        0.0000
     22 H          10.5036    8.1597   11.7862 H       1  UNL1        0.0000
     23 C          17.1150   12.8921   10.2984 C.3     1  UNL1        0.0000
     24 H          17.8218   13.5347    9.7973 H       1  UNL1        0.0000
     25 C          13.7454    9.1475    3.8488 C.3     1  UNL1        0.0000
     26 H          13.4709    8.2074    3.3725 H       1  UNL1        0.0000
     27 H          14.7888    9.3493    3.6130 H       1  UNL1        0.0000
     28 H          13.1185    9.9444    3.4598 H       1  UNL1        0.0000
     29 C          11.7193    8.3197   10.0476 C.2     1  UNL1        0.0000
     30 N           8.1927   13.9390    5.1955 N.pl3   1  UNL1        0.0000
     31 H           7.4702   14.5823    4.8974 H       1  UNL1        0.0000
     32 C           9.2779   12.7726    6.9324 C.2     1  UNL1        0.0000
     33 H           9.3915   12.5209    7.9746 H       1  UNL1        0.0000
     34 C           9.9850   12.5072    4.6356 C.2     1  UNL1        0.0000
     35 H          10.6354   12.0541    3.9070 H       1  UNL1        0.0000
     36 C          16.1287   12.2241    9.6354 C.2     1  UNL1        0.0000
     37 H          16.0111   12.3077    8.5670 H       1  UNL1        0.0000
     38 C          11.1411   11.2136    6.4421 C.2     1  UNL1        0.0000
     39 C           9.0085   13.3843    4.2661 C.3     1  UNL1        0.0000
     40 H           8.8413   13.6693    3.2395 H       1  UNL1        0.0000
     41 C          10.9819    7.7444    8.9842 C.2     1  UNL1        0.0000
     42 N          13.4445    9.8639   10.3780 N.2     1  UNL1        0.0000
     43 C           8.3179   13.6437    6.5101 C.2     1  UNL1        0.0000
     44 H           7.6294   14.1246    7.1871 H       1  UNL1        0.0000
     45 N          17.2442   12.7662   11.6397 N.pl3   1  UNL1        0.0000
     46 H          17.9866   13.2637   12.1152 H       1  UNL1        0.0000
     47 C          10.1467   12.1725    5.9956 C.2     1  UNL1        0.0000
     48 C           9.9165    6.7131    9.1521 C.3     1  UNL1        0.0000
     49 H           9.4826    6.4918    8.1798 H       1  UNL1        0.0000
     50 H           9.1369    7.0694    9.8231 H       1  UNL1        0.0000
     51 H          10.3359    5.7988    9.5696 H       1  UNL1        0.0000
     52 C          14.2126   10.6528    9.6353 C.2     1  UNL1        0.0000
     53 C          15.2369   11.3942   10.3485 C.2     1  UNL1        0.0000
     54 C          16.4067   11.9804   12.3592 C.2     1  UNL1        0.0000
     55 H          16.5782   11.9321   13.4229 H       1  UNL1        0.0000
@<TRIPOS>BOND
     1    40    39    1
     2    26    25    1
     3    28    25    1
     4    27    25    1
     5    25    15    1
     6    35    34    1
     7    39    34    1
     8    39    30    1
     9    34    47    2
    10    31    30    1
    11    13    10    1
    12    12    10    1
    13    30    43    1
    14    15     5    1
    15    15     8    2
    16    14     5    1
    17    14    38    2
    18    10     8    1
    19    10    11    1
    20    47    38    1
    21    47    32    1
    22     5     1    1
    23     8     2    1
    24    38     3    1
    25    43    32    2
    26    43    44    1
    27     6    16    1
    28    32    33    1
    29     2     1    1
    30     2     7    1
    31     3     1    1
    32    16     1    1
    33    16    41    1
    34     1     4    1
    35     1     9    1
    36    49    48    1
    37     4    52    1
    38    37    36    1
    39    41    48    1
    40    41    29    2
    41    48    51    1
    42    48    50    1
    43     9    29    1
    44     9    42    1
    45    52    53    1
    46    52    42    2
    47    36    23    1
    48    36    53    2
    49    24    23    1
    50    29    19    1
    51    23    45    1
    52    53    17    1
    53    19    21    1
    54    19    22    1
    55    19    20    1
    56    45    46    1
    57    45    54    1
    58    17    18    1
    59    17    54    2
    60    54    55    1
