@<TRIPOS>MOLECULE
CSD_code = WABCUZ | q = 1 | S = 0 | Stoichiometry = C26H18Cl2CoN6O2(1+) | MND = 6
 55 62 0 0 0
SMALL
GASTEIGER

@<TRIPOS>ATOM
      1 CO          8.3480    7.8062    8.2004 Co.oh   1  UNL1        0.0000
      2 C           8.6904    8.1848    5.2961 C.3     1  UNL1        0.0000
      3 H           8.7633    9.2462    5.4906 H       1  UNL1        0.0000
      4 C           8.7401    7.7080    3.9982 C.2     1  UNL1        0.0000
      5 H           8.8531    8.3979    3.1786 H       1  UNL1        0.0000
      6 C           8.6361    6.3390    3.7787 C.2     1  UNL1        0.0000
      7 H           8.6670    5.9406    2.7768 H       1  UNL1        0.0000
      8 C           8.4892    5.5003    4.8649 C.2     1  UNL1        0.0000
      9 H           8.4004    4.4329    4.7438 H       1  UNL1        0.0000
     10 C           8.4456    6.0465    6.1501 C.2     1  UNL1        0.0000
     11 C           8.2766    5.2846    7.3511 C.3     1  UNL1        0.0000
     12 H           8.1496    4.2113    7.3677 H       1  UNL1        0.0000
     13 C           8.0071    6.6056   10.4900 C.2     1  UNL1        0.0000
     14 C           7.8045    6.3357   11.9069 C.ar    1  UNL1        0.0000
     15 C           7.7116    5.0207   12.3730 C.ar    1  UNL1        0.0000
     16 H           7.7874    4.2094   11.6674 H       1  UNL1        0.0000
     17 C           7.5235    4.7746   13.7156 C.ar    1  UNL1        0.0000
     18 H           7.4506    3.7635   14.0834 H       1  UNL1        0.0000
     19 C           7.4247    5.8412   14.6055 C.ar    1  UNL1        0.0000
     20 C           7.5124    7.1545   14.1524 C.ar    1  UNL1        0.0000
     21 H           7.4308    7.9698   14.8535 H       1  UNL1        0.0000
     22 C           7.7012    7.3984   12.8096 C.ar    1  UNL1        0.0000
     23 H           7.7687    8.4095   12.4384 H       1  UNL1        0.0000
     24 C          11.1848    7.1469    8.6629 C.3     1  UNL1        0.0000
     25 H          10.8986    6.1044    8.6332 H       1  UNL1        0.0000
     26 C          12.4981    7.5034    8.9130 C.2     1  UNL1        0.0000
     27 H          13.2382    6.7383    9.0779 H       1  UNL1        0.0000
     28 C          12.8345    8.8519    8.9526 C.2     1  UNL1        0.0000
     29 H          13.8498    9.1578    9.1503 H       1  UNL1        0.0000
     30 C          11.8460    9.7909    8.7379 C.2     1  UNL1        0.0000
     31 H          12.0584   10.8474    8.7630 H       1  UNL1        0.0000
     32 C          10.5388    9.3639    8.4911 C.2     1  UNL1        0.0000
     33 C           9.4257   10.2388    8.2744 C.3     1  UNL1        0.0000
     34 H           9.4965   11.3171    8.2993 H       1  UNL1        0.0000
     35 C           6.1937    9.2268    7.8270 C.2     1  UNL1        0.0000
     36 C           4.8101    9.6359    7.6276 C.ar    1  UNL1        0.0000
     37 C           4.4824   10.9881    7.4885 C.ar    1  UNL1        0.0000
     38 H           5.2685   11.7240    7.5357 H       1  UNL1        0.0000
     39 C           3.1712   11.3655    7.2968 C.ar    1  UNL1        0.0000
     40 H           2.9095   12.4061    7.1893 H       1  UNL1        0.0000
     41 C           2.1743   10.3946    7.2437 C.ar    1  UNL1        0.0000
     42 C           2.4884    9.0457    7.3841 C.ar    1  UNL1        0.0000
     43 H           1.7048    8.3060    7.3437 H       1  UNL1        0.0000
     44 C           3.8002    8.6705    7.5753 C.ar    1  UNL1        0.0000
     45 H           4.0636    7.6301    7.6893 H       1  UNL1        0.0000
     46 N           8.2573    6.0133    8.4229 N.pl3   1  UNL1        0.0000
     47 N           8.0830    5.5734    9.6464 N.2     1  UNL1        0.0000
     48 N          10.2252    8.0426    8.4547 N.pl3   1  UNL1        0.0000
     49 N           8.3095    9.6102    8.0766 N.pl3   1  UNL1        0.0000
     50 N           7.1379   10.1689    7.8868 N.2     1  UNL1        0.0000
     51 N           8.5493    7.3862    6.3492 N.pl3   1  UNL1        0.0000
     52 O           6.4932    7.9915    7.9374 O.2     1  UNL1        0.0000
     53 O           8.1133    7.8051   10.0685 O.2     1  UNL1        0.0000
     54 CL          0.5422   10.8656    7.0044 Cl      1  UNL1        0.0000
     55 CL          7.1910    5.5337   16.2768 Cl      1  UNL1        0.0000
@<TRIPOS>BOND
     1     7     6    1
     2     5     4    1
     3     6     4    2
     4     6     8    1
     5     4     2    1
     6     9     8    1
     7     8    10    2
     8     2     3    1
     9     2    51    1
    10    10    51    1
    11    10    11    1
    12    51     1    1
    13    54    41    1
    14    40    39    1
    15    41    39   ar
    16    41    42   ar
    17    39    37   ar
    18    43    42    1
    19    11    12    1
    20    11    46    1
    21    42    44   ar
    22    37    38    1
    23    37    36   ar
    24    44    36   ar
    25    44    45    1
    26    36    35    1
    27    35    50    2
    28    35    52    1
    29    50    49    1
    30    52     1    1
    31    49     1    1
    32    49    33    1
    33     1    46    1
    34     1    48    1
    35     1    53    1
    36    33    34    1
    37    33    32    1
    38    46    47    1
    39    48    32    1
    40    48    24    1
    41    32    30    2
    42    25    24    1
    43    24    26    1
    44    30    31    1
    45    30    28    1
    46    26    28    2
    47    26    27    1
    48    28    29    1
    49    47    13    2
    50    53    13    1
    51    13    14    1
    52    16    15    1
    53    14    15   ar
    54    14    22   ar
    55    15    17   ar
    56    23    22    1
    57    22    20   ar
    58    17    18    1
    59    17    19   ar
    60    20    19   ar
    61    20    21    1
    62    19    55    1
