@<TRIPOS>MOLECULE
CSD_code = WAMYEP | q = 1 | S = 0 | Stoichiometry = C22H18CoN4O4(1+) | MND = 6
 49 56 0 0 0
SMALL
GASTEIGER

@<TRIPOS>ATOM
      1 CO          5.3462    2.4678    3.3369 Co.oh   1  UNL1        0.0000
      2 O           5.2755    1.1288    2.0095 O.3     1  UNL1        0.0000
      3 O           6.7146    0.3983    0.3743 O.3     1  UNL1        0.0000
      4 H           5.9286   -0.1577    0.2971 H       1  UNL1        0.0000
      5 O           5.4169    3.8062    4.6648 O.3     1  UNL1        0.0000
      6 O           3.9775    4.5372    6.2995 O.3     1  UNL1        0.0000
      7 H           4.7656    5.0893    6.3807 H       1  UNL1        0.0000
      8 N           7.1039    1.8085    3.6242 N.pl3   1  UNL1        0.0000
      9 N           6.0665    3.5332    1.9400 N.pl3   1  UNL1        0.0000
     10 N           4.6243    1.4021    4.7333 N.pl3   1  UNL1        0.0000
     11 N           3.5889    3.1275    3.0495 N.pl3   1  UNL1        0.0000
     12 C           7.8827    1.8578    4.7005 C.3     1  UNL1        0.0000
     13 H           7.4886    2.3880    5.5555 H       1  UNL1        0.0000
     14 C           9.1375    1.2743    4.7118 C.2     1  UNL1        0.0000
     15 H           9.7469    1.3329    5.5991 H       1  UNL1        0.0000
     16 C           9.5935    0.6194    3.5755 C.2     1  UNL1        0.0000
     17 H          10.5646    0.1494    3.5650 H       1  UNL1        0.0000
     18 C           8.7834    0.5816    2.4513 C.2     1  UNL1        0.0000
     19 H           9.0760    0.0900    1.5377 H       1  UNL1        0.0000
     20 C           7.5472    1.1937    2.5257 C.2     1  UNL1        0.0000
     21 C           6.0804    4.8524    1.7758 C.3     1  UNL1        0.0000
     22 H           5.6509    5.4410    2.5736 H       1  UNL1        0.0000
     23 C           6.6337    5.4345    0.6487 C.2     1  UNL1        0.0000
     24 H           6.6320    6.5074    0.5451 H       1  UNL1        0.0000
     25 C           7.1840    4.6238   -0.3351 C.2     1  UNL1        0.0000
     26 H           7.6126    5.0556   -1.2262 H       1  UNL1        0.0000
     27 C           7.1786    3.2495   -0.1539 C.2     1  UNL1        0.0000
     28 H           7.5880    2.5641   -0.8781 H       1  UNL1        0.0000
     29 C           6.6092    2.7532    1.0027 C.2     1  UNL1        0.0000
     30 C           6.4916    1.2841    1.4194 C.3     1  UNL1        0.0000
     31 C           4.6057    0.0826    4.8950 C.3     1  UNL1        0.0000
     32 H           5.0364   -0.5057    4.0978 H       1  UNL1        0.0000
     33 C           4.0459   -0.4997    6.0187 C.2     1  UNL1        0.0000
     34 H           4.0431   -1.5729    6.1201 H       1  UNL1        0.0000
     35 C           3.4943    0.3109    7.0019 C.2     1  UNL1        0.0000
     36 H           3.0601   -0.1213    7.8901 H       1  UNL1        0.0000
     37 C           3.5053    1.6855    6.8235 C.2     1  UNL1        0.0000
     38 H           3.0952    2.3709    7.5473 H       1  UNL1        0.0000
     39 C           4.0807    2.1821    5.6700 C.2     1  UNL1        0.0000
     40 C           2.8104    3.0782    1.9730 C.3     1  UNL1        0.0000
     41 H           3.2049    2.5484    1.1180 H       1  UNL1        0.0000
     42 C           1.5552    3.6609    1.9618 C.2     1  UNL1        0.0000
     43 H           0.9459    3.6021    1.0745 H       1  UNL1        0.0000
     44 C           1.0986    4.3150    3.0983 C.2     1  UNL1        0.0000
     45 H           0.1269    4.7840    3.1089 H       1  UNL1        0.0000
     46 C           1.9087    4.3533    4.2225 C.2     1  UNL1        0.0000
     47 H           1.6158    4.8446    5.1361 H       1  UNL1        0.0000
     48 C           3.1453    3.7422    4.1480 C.2     1  UNL1        0.0000
     49 C           4.2007    3.6515    5.2544 C.3     1  UNL1        0.0000
@<TRIPOS>BOND
     1    26    25    1
     2    28    27    1
     3    25    27    1
     4    25    23    2
     5    27    29    2
     6     4     3    1
     7     3    30    1
     8    24    23    1
     9    23    21    1
    10    29    30    1
    11    29     9    1
    12    43    42    1
    13    41    40    1
    14    30     2    1
    15    30    20    1
    16    19    18    1
    17    21     9    1
    18    21    22    1
    19     9     1    1
    20    42    40    1
    21    42    44    2
    22    40    11    1
    23     2     1    1
    24    18    20    2
    25    18    16    1
    26    20     8    1
    27    11     1    1
    28    11    48    1
    29    44    45    1
    30    44    46    1
    31     1     8    1
    32     1     5    1
    33     1    10    1
    34    17    16    1
    35    16    14    2
    36     8    12    1
    37    32    31    1
    38    48    46    2
    39    48    49    1
    40    46    47    1
    41     5    49    1
    42    12    14    1
    43    12    13    1
    44    14    15    1
    45    10    31    1
    46    10    39    1
    47    31    33    1
    48    49    39    1
    49    49     6    1
    50    39    37    2
    51    33    34    1
    52    33    35    2
    53     6     7    1
    54    37    35    1
    55    37    38    1
    56    35    36    1
