@<TRIPOS>MOLECULE
CSD_code = XEMJUW | q = 0 | S = 0 | Stoichiometry = C28H38CoN7O6 | MND = 6
 80 86 0 0 0
SMALL
GASTEIGER

@<TRIPOS>ATOM
      1 CO          5.5566   22.8789    2.2882 Co.oh   1  UNL1        0.0000
      2 O           6.5096   22.5332    3.8925 O.3     1  UNL1        0.0000
      3 O           7.5362   22.5975    6.2834 O.3     1  UNL1        0.0000
      4 O           3.9857   22.1485    2.9656 O.3     1  UNL1        0.0000
      5 O           1.7678   20.8040    3.1983 O.3     1  UNL1        0.0000
      6 O           4.7555   16.0893    2.6131 O.3     1  UNL1        0.0000
      7 O           9.9546   23.6031    0.1008 O.3     1  UNL1        0.0000
      8 N           5.9859   21.1502    1.5385 N.3     1  UNL1        0.0000
      9 N           4.5651   18.6441    1.4225 N.3     1  UNL1        0.0000
     10 N           5.2489   24.5560    3.0380 N.3     1  UNL1        0.0000
     11 N           7.3708   23.7846    1.4376 N.4     1  UNL1        0.0000
     12 N           4.6392   23.4574    0.7653 N.2     1  UNL1        0.0000
     13 N           3.5073   23.7101    0.5935 N.2     1  UNL1        0.0000
     14 N           2.4542   23.9971    0.2831 N.2     1  UNL1        0.0000
     15 C           7.2706   20.3210    3.4451 C.ar    1  UNL1        0.0000
     16 C           7.1071   21.4670    4.2650 C.ar    1  UNL1        0.0000
     17 C           7.7010   21.4357    5.5744 C.ar    1  UNL1        0.0000
     18 C           8.3743   20.3261    6.0145 C.ar    1  UNL1        0.0000
     19 H           8.8111   20.2992    7.0008 H       1  UNL1        0.0000
     20 C           8.5159   19.2014    5.1877 C.ar    1  UNL1        0.0000
     21 H           9.0519   18.3417    5.5592 H       1  UNL1        0.0000
     22 C           7.9842   19.2046    3.9311 C.ar    1  UNL1        0.0000
     23 H           8.0988   18.3428    3.2888 H       1  UNL1        0.0000
     24 C           6.6969   20.2556    2.1476 C.3     1  UNL1        0.0000
     25 H           6.8895   19.3224    1.6187 H       1  UNL1        0.0000
     26 C           5.3593   20.6748    0.3218 C.3     1  UNL1        0.0000
     27 H           6.0623   20.0602   -0.2548 H       1  UNL1        0.0000
     28 H           5.0374   21.5214   -0.2823 H       1  UNL1        0.0000
     29 C           4.1320   19.8192    0.7001 C.3     1  UNL1        0.0000
     30 H           3.4922   20.4228    1.3450 H       1  UNL1        0.0000
     31 H           3.5770   19.5648   -0.2132 H       1  UNL1        0.0000
     32 C           3.8028   18.3225    2.6109 C.3     1  UNL1        0.0000
     33 H           2.8008   17.9351    2.3532 H       1  UNL1        0.0000
     34 H           3.6960   19.2233    3.2144 H       1  UNL1        0.0000
     35 C           4.5555   17.2489    3.3949 C.3     1  UNL1        0.0000
     36 H           5.5245   17.6529    3.7222 H       1  UNL1        0.0000
     37 H           3.9824   16.9296    4.2666 H       1  UNL1        0.0000
     38 C           5.4652   16.3967    1.4388 C.3     1  UNL1        0.0000
     39 H           5.5541   15.4625    0.8806 H       1  UNL1        0.0000
     40 H           6.4713   16.7616    1.6988 H       1  UNL1        0.0000
     41 C           4.7458   17.4616    0.6068 C.3     1  UNL1        0.0000
     42 H           5.3499   17.7093   -0.2693 H       1  UNL1        0.0000
     43 H           3.7778   17.0546    0.2612 H       1  UNL1        0.0000
     44 C           7.9981   22.6324    7.6076 C.3     1  UNL1        0.0000
     45 H           7.5258   21.8576    8.2208 H       1  UNL1        0.0000
     46 H           7.7216   23.6128    7.9934 H       1  UNL1        0.0000
     47 H           9.0872   22.5185    7.6596 H       1  UNL1        0.0000
     48 C           3.0284   24.1595    3.8681 C.ar    1  UNL1        0.0000
     49 C           2.9954   22.7975    3.4668 C.ar    1  UNL1        0.0000
     50 C           1.7532   22.0968    3.6458 C.ar    1  UNL1        0.0000
     51 C           0.6717   22.7169    4.2179 C.ar    1  UNL1        0.0000
     52 H          -0.2583   22.1870    4.3495 H       1  UNL1        0.0000
     53 C           0.7428   24.0535    4.6327 C.ar    1  UNL1        0.0000
     54 H          -0.1258   24.5125    5.0785 H       1  UNL1        0.0000
     55 C           1.8959   24.7594    4.4571 C.ar    1  UNL1        0.0000
     56 H           1.9575   25.7953    4.7565 H       1  UNL1        0.0000
     57 C           4.1982   24.9367    3.6743 C.3     1  UNL1        0.0000
     58 H           4.1795   25.9446    4.0954 H       1  UNL1        0.0000
     59 C           6.3961   25.4255    2.9733 C.3     1  UNL1        0.0000
     60 H           6.1065   26.4779    3.0905 H       1  UNL1        0.0000
     61 H           7.0752   25.1583    3.7912 H       1  UNL1        0.0000
     62 C           7.0821   25.2143    1.6271 C.3     1  UNL1        0.0000
     63 H           7.9810   25.8372    1.5706 H       1  UNL1        0.0000
     64 H           6.3909   25.5197    0.8381 H       1  UNL1        0.0000
     65 C           8.6077   23.3770    2.1232 C.3     1  UNL1        0.0000
     66 H           8.6598   22.2864    2.0903 H       1  UNL1        0.0000
     67 H           8.5697   23.6832    3.1680 H       1  UNL1        0.0000
     68 C           9.8764   23.9381    1.4671 C.3     1  UNL1        0.0000
     69 H           9.9348   25.0314    1.5857 H       1  UNL1        0.0000
     70 H          10.7558   23.4956    1.9384 H       1  UNL1        0.0000
     71 C           8.8083   24.0506   -0.5887 C.3     1  UNL1        0.0000
     72 H           8.9267   23.7141   -1.6200 H       1  UNL1        0.0000
     73 H           8.7668   25.1503   -0.5802 H       1  UNL1        0.0000
     74 C           7.5355   23.4498    0.0149 C.3     1  UNL1        0.0000
     75 H           6.6552   23.7819   -0.5346 H       1  UNL1        0.0000
     76 H           7.6040   22.3631   -0.0618 H       1  UNL1        0.0000
     77 C           0.5666   20.0775    3.2544 C.3     1  UNL1        0.0000
     78 H           0.2347   19.9261    4.2872 H       1  UNL1        0.0000
     79 H           0.7829   19.1104    2.8039 H       1  UNL1        0.0000
     80 H          -0.2272   20.5722    2.6855 H       1  UNL1        0.0000
@<TRIPOS>BOND
     1    72    71    1
     2    71    73    1
     3    71    74    1
     4    71     7    1
     5    75    74    1
     6    28    26    1
     7    42    41    1
     8    27    26    1
     9    31    29    1
    10    76    74    1
    11    74    11    1
    12     7    68    1
    13    43    41    1
    14    14    13    2
    15    26    29    1
    16    26     8    1
    17    13    12    2
    18    41     9    1
    19    41    38    1
    20    29    30    1
    21    29     9    1
    22    12     1    1
    23    64    62    1
    24    39    38    1
    25     9    32    1
    26    11    62    1
    27    11    65    1
    28    11     1    1
    29    38    40    1
    30    38     6    1
    31    68    69    1
    32    68    70    1
    33    68    65    1
    34     8    24    1
    35     8     1    1
    36    63    62    1
    37    25    24    1
    38    62    59    1
    39    66    65    1
    40    65    67    1
    41    24    15    1
    42     1     4    1
    43     1    10    1
    44     1     2    1
    45    33    32    1
    46    32    34    1
    47    32    35    1
    48     6    35    1
    49    80    77    1
    50    79    77    1
    51     4    49    1
    52    59    10    1
    53    59    60    1
    54    59    61    1
    55    10    57    1
    56     5    77    1
    57     5    50    1
    58    77    78    1
    59    23    22    1
    60    35    36    1
    61    35    37    1
    62    15    22   ar
    63    15    16   ar
    64    49    50   ar
    65    49    48   ar
    66    50    51   ar
    67    57    48    1
    68    57    58    1
    69    48    55   ar
    70     2    16    1
    71    22    20   ar
    72    51    52    1
    73    51    53   ar
    74    16    17   ar
    75    55    53   ar
    76    55    56    1
    77    53    54    1
    78    20    21    1
    79    20    18   ar
    80    17    18   ar
    81    17     3    1
    82    18    19    1
    83     3    44    1
    84    44    47    1
    85    44    46    1
    86    44    45    1
