@<TRIPOS>MOLECULE
CSD_code = YAVLEO | q = 0 | S = 0 | Stoichiometry = C24H13CoN4O8 | MND = 6
 50 57 0 0 0
SMALL
GASTEIGER

@<TRIPOS>ATOM
      1 CO          4.9691    9.9770   15.3835 Co.oh   1  UNL1        0.0000
      2 O           6.3681    9.8290   16.6435 O.3     1  UNL1        0.0000
      3 O           7.2137   10.8038   18.4531 O.2     1  UNL1        0.0000
      4 O           6.0120   10.9743   14.1116 O.3     1  UNL1        0.0000
      5 O           7.1341   10.6766   12.2121 O.2     1  UNL1        0.0000
      6 N           4.5394   11.4530   16.3237 N.pl3   1  UNL1        0.0000
      7 N           3.4422   10.5109   14.2961 N.pl3   1  UNL1        0.0000
      8 N           5.6698    8.5495   14.5242 N.pl3   1  UNL1        0.0000
      9 N           4.0312    8.6092   16.3898 N.pl3   1  UNL1        0.0000
     10 C           6.4059   10.7418   17.5577 C.2     1  UNL1        0.0000
     11 C           5.2931   11.7644   17.3716 C.3     1  UNL1        0.0000
     12 C           5.0286   12.8938   18.1283 C.2     1  UNL1        0.0000
     13 H           5.6415   13.1088   18.9886 H       1  UNL1        0.0000
     14 C           3.9580   13.6931   17.7534 C.2     1  UNL1        0.0000
     15 H           3.7033   14.5649   18.3363 H       1  UNL1        0.0000
     16 C           3.2074   13.3734   16.6313 C.2     1  UNL1        0.0000
     17 H           2.3734   13.9882   16.3355 H       1  UNL1        0.0000
     18 C           3.5305   12.2251   15.9177 C.2     1  UNL1        0.0000
     19 C           2.8798   11.6614   14.7379 C.3     1  UNL1        0.0000
     20 C           1.8350   12.2754   14.0483 C.2     1  UNL1        0.0000
     21 H           1.4086   13.1858   14.4340 H       1  UNL1        0.0000
     22 C           1.3434   11.6930   12.8994 C.2     1  UNL1        0.0000
     23 H           0.5241   12.1404   12.3586 H       1  UNL1        0.0000
     24 C           1.9296   10.5197   12.4440 C.2     1  UNL1        0.0000
     25 H           1.5787   10.0258   11.5511 H       1  UNL1        0.0000
     26 C           2.9674    9.9633   13.1787 C.2     1  UNL1        0.0000
     27 C           3.5419    8.6504   12.7037 C.2     1  UNL1        0.0000
     28 C           6.6169   10.2633   13.2275 C.2     1  UNL1        0.0000
     29 C           6.5580    8.7755   13.5614 C.3     1  UNL1        0.0000
     30 C           7.2939    7.7407   13.0081 C.2     1  UNL1        0.0000
     31 H           7.9943    7.9529   12.2166 H       1  UNL1        0.0000
     32 C           7.0993    6.4611   13.5104 C.2     1  UNL1        0.0000
     33 H           7.6556    5.6299   13.1044 H       1  UNL1        0.0000
     34 C           6.2011    6.2500   14.5465 C.2     1  UNL1        0.0000
     35 H           6.0602    5.2641   14.9580 H       1  UNL1        0.0000
     36 C           5.4896    7.3336   15.0495 C.2     1  UNL1        0.0000
     37 C           4.5079    7.3678   16.1283 C.3     1  UNL1        0.0000
     38 C           4.0686    6.2627   16.8389 C.2     1  UNL1        0.0000
     39 H           4.4599    5.2850   16.6099 H       1  UNL1        0.0000
     40 C           3.1245    6.4349   17.8423 C.2     1  UNL1        0.0000
     41 H           2.7826    5.5897   18.4205 H       1  UNL1        0.0000
     42 C           2.6269    7.7005   18.0760 C.2     1  UNL1        0.0000
     43 H           1.8830    7.8921   18.8330 H       1  UNL1        0.0000
     44 C           3.1000    8.7719   17.3173 C.2     1  UNL1        0.0000
     45 C           2.3601   10.1548   17.3968 C.2     1  UNL1        0.0000
     46 O           3.3233    7.6080   13.2498 O.2     1  UNL1        0.0000
     47 O           2.4908   10.8348   18.3985 O.co2   1  UNL1        0.0000
     48 O           4.2742    8.7163   11.5869 O.3     1  UNL1        0.0000
     49 H           4.4601    9.6154   11.2774 H       1  UNL1        0.0000
     50 O           1.7237   10.3366   16.3445 O.co2   1  UNL1        0.0000
@<TRIPOS>BOND
     1    49    48    1
     2    25    24    1
     3    48    27    1
     4     5    28    2
     5    31    30    1
     6    23    22    1
     7    24    22    1
     8    24    26    2
     9    27    26    1
    10    27    46    2
    11    22    20    2
    12    30    32    2
    13    30    29    1
    14    33    32    1
    15    26     7    1
    16    28    29    1
    17    28     4    1
    18    32    34    1
    19    29     8    1
    20    20    21    1
    21    20    19    1
    22     4     1    1
    23     7    19    1
    24     7     1    1
    25     8    36    1
    26     8     1    1
    27    34    35    1
    28    34    36    2
    29    19    18    1
    30    36    37    1
    31     1     6    1
    32     1     9    1
    33     1     2    1
    34    18     6    1
    35    18    16    2
    36    37     9    1
    37    37    38    1
    38     6    11    1
    39    17    16    1
    40    50    45   ar
    41     9    44    1
    42    39    38    1
    43    16    14    1
    44     2    10    1
    45    38    40    2
    46    44    45    1
    47    44    42    2
    48    11    10    1
    49    11    12    1
    50    45    47   ar
    51    10     3    2
    52    14    12    2
    53    14    15    1
    54    40    42    1
    55    40    41    1
    56    42    43    1
    57    12    13    1
