@<TRIPOS>MOLECULE
CSD_code = YIWCAK | q = 1 | S = 0 | Stoichiometry = C24H34CoN4O6(1+) | MND = 6
 69 74 0 0 0
SMALL
GASTEIGER

@<TRIPOS>ATOM
      1 CO          7.7571   21.8506    1.6054 Co.oh   1  UNL1        0.0000
      2 O           7.1396   20.5992    0.3899 O.3     1  UNL1        0.0000
      3 O           5.6813   15.3995    1.3924 O.3     1  UNL1        0.0000
      4 O           8.7304   25.9253    3.2135 O.3     1  UNL1        0.0000
      5 O           9.2911   20.8546    1.8739 O.3     1  UNL1        0.0000
      6 O          13.4104   19.7161   -1.5558 O.3     1  UNL1        0.0000
      7 O           4.1472   24.2362    2.7419 O.3     1  UNL1        0.0000
      8 N           8.4770   22.7943    0.1568 N.3     1  UNL1        0.0000
      9 N           7.0157   20.9662    3.0827 N.3     1  UNL1        0.0000
     10 N           8.4734   23.2150    2.9994 N.4     1  UNL1        0.0000
     11 N           6.0354   22.9480    1.2486 N.4     1  UNL1        0.0000
     12 C           6.8333   19.3719    0.6706 C.ar    1  UNL1        0.0000
     13 C           6.7186   18.4513   -0.3928 C.ar    1  UNL1        0.0000
     14 H           6.9349   18.8094   -1.3873 H       1  UNL1        0.0000
     15 C           6.3419   17.1471   -0.1930 C.ar    1  UNL1        0.0000
     16 H           6.2727   16.4914   -1.0465 H       1  UNL1        0.0000
     17 C           6.0610   16.6699    1.0976 C.ar    1  UNL1        0.0000
     18 C           5.5561   14.4659    0.3435 C.3     1  UNL1        0.0000
     19 H           4.7960   14.7745   -0.3809 H       1  UNL1        0.0000
     20 H           5.2432   13.5371    0.8169 H       1  UNL1        0.0000
     21 H           6.5094   14.3058   -0.1690 H       1  UNL1        0.0000
     22 C           6.1732   17.5436    2.1602 C.ar    1  UNL1        0.0000
     23 H           5.9665   17.1743    3.1525 H       1  UNL1        0.0000
     24 C           6.5512   18.8847    1.9793 C.ar    1  UNL1        0.0000
     25 C           6.6488   19.7314    3.1127 C.3     1  UNL1        0.0000
     26 H           6.3707   19.2885    4.0700 H       1  UNL1        0.0000
     27 C           7.0718   21.7382    4.3041 C.3     1  UNL1        0.0000
     28 H           7.0122   21.0965    5.1897 H       1  UNL1        0.0000
     29 H           6.2284   22.4407    4.3258 H       1  UNL1        0.0000
     30 C           8.3845   22.5138    4.2868 C.3     1  UNL1        0.0000
     31 H           8.4368   23.1996    5.1382 H       1  UNL1        0.0000
     32 H           9.2142   21.8052    4.3378 H       1  UNL1        0.0000
     33 C           9.7835   23.8480    2.7979 C.3     1  UNL1        0.0000
     34 H           9.9048   24.0676    1.7365 H       1  UNL1        0.0000
     35 H          10.5768   23.1649    3.1004 H       1  UNL1        0.0000
     36 C           9.8749   25.1688    3.5688 C.3     1  UNL1        0.0000
     37 H           9.8939   24.9936    4.6524 H       1  UNL1        0.0000
     38 H          10.7966   25.6886    3.2872 H       1  UNL1        0.0000
     39 C          10.2091   20.6320    0.9907 C.ar    1  UNL1        0.0000
     40 C          11.1341   19.5880    1.2410 C.ar    1  UNL1        0.0000
     41 H          10.9973   19.0060    2.1388 H       1  UNL1        0.0000
     42 C          12.1637   19.3248    0.3850 C.ar    1  UNL1        0.0000
     43 H          12.8619   18.5274    0.5853 H       1  UNL1        0.0000
     44 C          12.3481   20.0788   -0.7934 C.ar    1  UNL1        0.0000
     45 C          13.6614   20.4274   -2.7449 C.3     1  UNL1        0.0000
     46 H          12.8288   20.3366   -3.4497 H       1  UNL1        0.0000
     47 H          14.5502   19.9722   -3.1778 H       1  UNL1        0.0000
     48 H          13.8582   21.4855   -2.5445 H       1  UNL1        0.0000
     49 C          11.4639   21.0928   -1.0729 C.ar    1  UNL1        0.0000
     50 H          11.5605   21.6874   -1.9679 H       1  UNL1        0.0000
     51 C          10.3916   21.3878   -0.2000 C.ar    1  UNL1        0.0000
     52 C           9.5075   22.4413   -0.5355 C.3     1  UNL1        0.0000
     53 H           9.7414   23.0009   -1.4427 H       1  UNL1        0.0000
     54 C           7.6504   23.8971   -0.2807 C.3     1  UNL1        0.0000
     55 H           7.8585   24.1695   -1.3210 H       1  UNL1        0.0000
     56 H           7.8482   24.7713    0.3537 H       1  UNL1        0.0000
     57 C           6.1977   23.4636   -0.1170 C.3     1  UNL1        0.0000
     58 H           5.5209   24.2970   -0.3301 H       1  UNL1        0.0000
     59 H           5.9946   22.6426   -0.8081 H       1  UNL1        0.0000
     60 C           4.7182   22.3323    1.4598 C.3     1  UNL1        0.0000
     61 H           4.7685   21.6934    2.3424 H       1  UNL1        0.0000
     62 H           4.4561   21.7130    0.6025 H       1  UNL1        0.0000
     63 C           3.6508   23.4025    1.7088 C.3     1  UNL1        0.0000
     64 H           3.4625   23.9924    0.8021 H       1  UNL1        0.0000
     65 H           2.7150   22.9176    2.0059 H       1  UNL1        0.0000
     66 H           7.8199   24.0034    3.0346 H       1  UNL1        0.0000
     67 H           6.0371   23.7531    1.8825 H       1  UNL1        0.0000
     68 H           3.4565   24.8429    3.0248 H       1  UNL1        0.0000
     69 H           8.8054   26.8121    3.5786 H       1  UNL1        0.0000
@<TRIPOS>BOND
     1    46    45    1
     2    47    45    1
     3    45    48    1
     4    45     6    1
     5    50    49    1
     6     6    44    1
     7    53    52    1
     8    14    13    1
     9    55    54    1
    10    49    44   ar
    11    49    51   ar
    12    16    15    1
    13    59    57    1
    14    44    42   ar
    15    52    51    1
    16    52     8    1
    17    13    15   ar
    18    13    12   ar
    19    19    18    1
    20    58    57    1
    21    54    57    1
    22    54     8    1
    23    54    56    1
    24    51    39   ar
    25    15    17   ar
    26    21    18    1
    27    57    11    1
    28     8     1    1
    29    18    20    1
    30    18     3    1
    31    42    43    1
    32    42    40   ar
    33     2    12    1
    34     2     1    1
    35    62    60    1
    36    12    24   ar
    37    64    63    1
    38    39    40   ar
    39    39     5    1
    40    17     3    1
    41    17    22   ar
    42    40    41    1
    43    11    60    1
    44    11     1    1
    45    11    67    1
    46    60    63    1
    47    60    61    1
    48     1     5    1
    49     1    10    1
    50     1     9    1
    51    63    65    1
    52    63     7    1
    53    34    33    1
    54    24    22   ar
    55    24    25    1
    56    22    23    1
    57     7    68    1
    58    33    10    1
    59    33    35    1
    60    33    36    1
    61    10    66    1
    62    10    30    1
    63     9    25    1
    64     9    27    1
    65    25    26    1
    66     4    36    1
    67     4    69    1
    68    38    36    1
    69    36    37    1
    70    30    27    1
    71    30    32    1
    72    30    31    1
    73    27    29    1
    74    27    28    1
