@<TRIPOS>MOLECULE
CSD_code = ZAJGUP | q = 1 | S = 0 | Stoichiometry = C24H28CoN6O2S2(1+) | MND = 6
 63 68 0 0 0
SMALL
GASTEIGER

@<TRIPOS>ATOM
      1 CO          6.4821    9.2422   10.0957 Co.oh   1  UNL1        0.0000
      2 S           9.8410   10.3867    7.4714 S.3     1  UNL1        0.0000
      3 S           6.5549    4.8261   10.1883 S.3     1  UNL1        0.0000
      4 N           6.9248    8.4514   11.7099 N.3     1  UNL1        0.0000
      5 N           8.3154    9.4225    9.4721 N.3     1  UNL1        0.0000
      6 O           4.7142    9.1057   10.6459 O.3     1  UNL1        0.0000
      7 N           6.3704    7.4079    9.4517 N.3     1  UNL1        0.0000
      8 N           6.9677    7.0836   11.6064 N.3     1  UNL1        0.0000
      9 H           6.9398    6.5340   12.4593 H       1  UNL1        0.0000
     10 C           6.6079    6.5692   10.4074 C.3     1  UNL1        0.0000
     11 N           6.0483   10.0079    8.4646 N.3     1  UNL1        0.0000
     12 C           3.6736    9.5739   10.0419 C.ar    1  UNL1        0.0000
     13 C           7.0304    9.0124   12.8712 C.3     1  UNL1        0.0000
     14 H           7.1670    8.3801   13.7492 H       1  UNL1        0.0000
     15 C           6.7674   11.3148   11.9943 C.ar    1  UNL1        0.0000
     16 C           9.5507    9.1859   10.1891 C.3     1  UNL1        0.0000
     17 H          10.3652    9.0262    9.4681 H       1  UNL1        0.0000
     18 H           9.4402    8.2870   10.7990 H       1  UNL1        0.0000
     19 C           8.3495    9.9994    8.3149 C.3     1  UNL1        0.0000
     20 C           2.4193    9.4367   10.6858 C.ar    1  UNL1        0.0000
     21 H           2.4109    8.9593   11.6533 H       1  UNL1        0.0000
     22 C           3.6857   10.2121    8.7634 C.ar    1  UNL1        0.0000
     23 N           7.1659   10.2598    7.7161 N.3     1  UNL1        0.0000
     24 H           7.0878   10.8823    6.9184 H       1  UNL1        0.0000
     25 C           2.4740   10.6741    8.2048 C.ar    1  UNL1        0.0000
     26 H           2.5057   11.1580    7.2394 H       1  UNL1        0.0000
     27 C           4.8908   10.4150    8.0524 C.3     1  UNL1        0.0000
     28 H           4.8287   10.9433    7.1003 H       1  UNL1        0.0000
     29 C           6.7564   12.6981   12.2983 C.ar    1  UNL1        0.0000
     30 H           6.5842   13.3820   11.4817 H       1  UNL1        0.0000
     31 C           7.1803   10.9168   14.3802 C.ar    1  UNL1        0.0000
     32 H           7.3438   10.2155   15.1855 H       1  UNL1        0.0000
     33 C           6.9947   10.4098   13.0760 C.ar    1  UNL1        0.0000
     34 C           7.1613   12.2599   14.6316 C.ar    1  UNL1        0.0000
     35 H           7.3066   12.6340   15.6321 H       1  UNL1        0.0000
     36 C           6.0036    6.9328    8.1390 C.3     1  UNL1        0.0000
     37 H           5.2332    7.6005    7.7423 H       1  UNL1        0.0000
     38 H           5.5566    5.9305    8.2143 H       1  UNL1        0.0000
     39 C           6.9477   13.1532   13.5743 C.ar    1  UNL1        0.0000
     40 H           6.9295   14.2146   13.7703 H       1  UNL1        0.0000
     41 C           1.2838   10.5195    8.8584 C.ar    1  UNL1        0.0000
     42 H           0.3660   10.8766    8.4200 H       1  UNL1        0.0000
     43 C           1.2647    9.8946   10.1117 C.ar    1  UNL1        0.0000
     44 H           0.3266    9.7751   10.6321 H       1  UNL1        0.0000
     45 C           9.8837   10.3637   11.0610 C.2     1  UNL1        0.0000
     46 H           9.9197   11.3128   10.5455 H       1  UNL1        0.0000
     47 C           9.2783   10.7673    5.7858 C.3     1  UNL1        0.0000
     48 H          10.1889   10.8382    5.1976 H       1  UNL1        0.0000
     49 H           8.7655   11.7248    5.7552 H       1  UNL1        0.0000
     50 H           8.6630    9.9583    5.4045 H       1  UNL1        0.0000
     51 C          10.1043   10.2879   12.3585 C.2     1  UNL1        0.0000
     52 H          10.0795    9.3494   12.8877 H       1  UNL1        0.0000
     53 H          10.3407   11.1580   12.9444 H       1  UNL1        0.0000
     54 C           8.4298    6.8305    7.4897 C.2     1  UNL1        0.0000
     55 H           8.7636    6.8574    8.5131 H       1  UNL1        0.0000
     56 H           9.1988    6.7621    6.7405 H       1  UNL1        0.0000
     57 C           7.1511    6.8657    7.1682 C.2     1  UNL1        0.0000
     58 H           6.8414    6.8152    6.1334 H       1  UNL1        0.0000
     59 C           6.8770    4.1693   11.8526 C.3     1  UNL1        0.0000
     60 H           6.8436    3.0899   11.7324 H       1  UNL1        0.0000
     61 H           6.0946    4.4720   12.5429 H       1  UNL1        0.0000
     62 H           7.8665    4.4582   12.1944 H       1  UNL1        0.0000
     63 O           6.5812   10.9687   10.7654 O.3     1  UNL1        0.0000
@<TRIPOS>BOND
     1    48    47    1
     2    50    47    1
     3    49    47    1
     4    47     2    1
     5    58    57    1
     6    56    54    1
     7    24    23    1
     8    28    27    1
     9    57    54    2
    10    57    36    1
    11    26    25    1
    12     2    19    1
    13    54    55    1
    14    23    19    1
    15    23    11    1
    16    37    36    1
    17    27    11    1
    18    27    22    1
    19    36    38    1
    20    36     7    1
    21    25    22   ar
    22    25    41   ar
    23    19     5    1
    24    42    41    1
    25    11     1    1
    26    22    12   ar
    27    41    43   ar
    28     7     1    1
    29     7    10    1
    30    17    16    1
    31     5     1    1
    32     5    16    1
    33    12     6    1
    34    12    20   ar
    35     1     6    1
    36     1    63    1
    37     1     4    1
    38    43    44    1
    39    43    20   ar
    40     3    10    1
    41     3    59    1
    42    16    18    1
    43    16    45    1
    44    10     8    1
    45    46    45    1
    46    20    21    1
    47    63    15    1
    48    45    51    2
    49    30    29    1
    50     8     4    1
    51     8     9    1
    52     4    13    1
    53    60    59    1
    54    59    62    1
    55    59    61    1
    56    15    29   ar
    57    15    33   ar
    58    29    39   ar
    59    51    52    1
    60    51    53    1
    61    13    33    1
    62    13    14    1
    63    33    31   ar
    64    39    40    1
    65    39    34   ar
    66    31    34   ar
    67    31    32    1
    68    34    35    1
