@<TRIPOS>MOLECULE
CSD_code = AFIVUH | q = 0 | S = 0 | Stoichiometry = C25H51CoN2O3P2Si | MND = 5
 85 86 0 0 0
SMALL
GASTEIGER

@<TRIPOS>ATOM
      1 CO          1.5062   11.5387   11.4201 Co.oh   1  UNL1        0.0000
      2 SI          2.3536   13.4458    9.1771 Si      1  UNL1        0.0000
      3 P           3.2362   10.9943   12.7408 P.3     1  UNL1        0.0000
      4 P           1.0154   16.4849   12.8660 P.3     1  UNL1        0.0000
      5 N           0.6613   12.9913    9.1930 N.am    1  UNL1        0.0000
      6 N           2.8776   13.3518   10.8820 N.4     1  UNL1        0.0000
      7 O          -0.9676   11.7684   10.2155 O.2     1  UNL1        0.0000
      8 O          -0.6593   11.9580   13.2963 O.3     1  UNL1        0.0000
      9 O           1.3113    9.4392    9.4281 O.3     1  UNL1        0.0000
     10 C          -0.2888   13.3135    8.0966 C.3     1  UNL1        0.0000
     11 C           0.3588   14.1963    7.0326 C.3     1  UNL1        0.0000
     12 H           1.2491   13.7335    6.6203 H       1  UNL1        0.0000
     13 H           0.6113   15.1723    7.4300 H       1  UNL1        0.0000
     14 H          -0.3529   14.3388    6.2222 H       1  UNL1        0.0000
     15 C          -1.4950   14.0750    8.6570 C.3     1  UNL1        0.0000
     16 H          -2.0301   13.4683    9.3796 H       1  UNL1        0.0000
     17 H          -2.1740   14.3328    7.8479 H       1  UNL1        0.0000
     18 H          -1.1648   14.9923    9.1402 H       1  UNL1        0.0000
     19 C          -0.7287   12.0140    7.4118 C.3     1  UNL1        0.0000
     20 H           0.1445   11.4709    7.0558 H       1  UNL1        0.0000
     21 H          -1.3719   12.2407    6.5651 H       1  UNL1        0.0000
     22 H          -1.2760   11.3791    8.1007 H       1  UNL1        0.0000
     23 C           3.3493   12.2288    8.0827 C.3     1  UNL1        0.0000
     24 H           3.3464   11.2170    8.4747 H       1  UNL1        0.0000
     25 H           4.3819   12.5405    7.9592 H       1  UNL1        0.0000
     26 H           2.9096   12.1792    7.0911 H       1  UNL1        0.0000
     27 C           2.8863   15.1874    8.5830 C.3     1  UNL1        0.0000
     28 H           2.2037   15.9848    8.8539 H       1  UNL1        0.0000
     29 H           3.0140   15.2157    7.5073 H       1  UNL1        0.0000
     30 H           3.8524   15.4260    9.0205 H       1  UNL1        0.0000
     31 C           4.2629   12.9284   11.0592 C.3     1  UNL1        0.0000
     32 H           4.9408   13.7875   10.9270 H       1  UNL1        0.0000
     33 H           4.4963   12.1979   10.2884 H       1  UNL1        0.0000
     34 C           4.5336   12.2818   12.4203 C.3     1  UNL1        0.0000
     35 H           4.5013   13.0250   13.2162 H       1  UNL1        0.0000
     36 H           5.5316   11.8389   12.4186 H       1  UNL1        0.0000
     37 C           4.1807    9.3966   12.4650 C.3     1  UNL1        0.0000
     38 H           3.4179    8.6126   12.5539 H       1  UNL1        0.0000
     39 C           4.7188    9.3593   11.0367 C.3     1  UNL1        0.0000
     40 H           5.0646    8.3563   10.7918 H       1  UNL1        0.0000
     41 H           5.5566   10.0434   10.9144 H       1  UNL1        0.0000
     42 H           3.9388    9.6301   10.3284 H       1  UNL1        0.0000
     43 C           5.3055    9.1109   13.4571 C.3     1  UNL1        0.0000
     44 H           5.8626    8.2363   13.1234 H       1  UNL1        0.0000
     45 H           4.9253    8.8990   14.4525 H       1  UNL1        0.0000
     46 H           6.0025    9.9446   13.5204 H       1  UNL1        0.0000
     47 C           3.1049   11.0396   14.6044 C.3     1  UNL1        0.0000
     48 H           4.1039   10.8826   15.0264 H       1  UNL1        0.0000
     49 C           2.5724   12.3807   15.1006 C.3     1  UNL1        0.0000
     50 H           2.3363   12.3130   16.1614 H       1  UNL1        0.0000
     51 H           1.6636   12.6544   14.5691 H       1  UNL1        0.0000
     52 H           3.2995   13.1803   14.9762 H       1  UNL1        0.0000
     53 C           2.1680    9.9143   15.0372 C.3     1  UNL1        0.0000
     54 H           2.0258    9.9286   16.1168 H       1  UNL1        0.0000
     55 H           2.5588    8.9382   14.7584 H       1  UNL1        0.0000
     56 H           1.1963   10.0384   14.5611 H       1  UNL1        0.0000
     57 C           2.6271   14.5400   11.7034 C.3     1  UNL1        0.0000
     58 H           3.3192   15.3414   11.4032 H       1  UNL1        0.0000
     59 H           2.8512   14.2933   12.7441 H       1  UNL1        0.0000
     60 C           1.1983   15.0587   11.6643 C.3     1  UNL1        0.0000
     61 H           0.5322   14.2546   11.9831 H       1  UNL1        0.0000
     62 H           0.9081   15.3673   10.6597 H       1  UNL1        0.0000
     63 C           0.9531   17.9183   11.6373 C.3     1  UNL1        0.0000
     64 H           0.3532   17.6279   10.7660 H       1  UNL1        0.0000
     65 C           0.3466   19.1619   12.2800 C.3     1  UNL1        0.0000
     66 H           0.4766   20.0223   11.6242 H       1  UNL1        0.0000
     67 H           0.8410   19.3777   13.2260 H       1  UNL1        0.0000
     68 H          -0.7175   19.0396   12.4648 H       1  UNL1        0.0000
     69 C           2.3775   18.2258   11.1811 C.3     1  UNL1        0.0000
     70 H           2.3805   19.0530   10.4718 H       1  UNL1        0.0000
     71 H           2.8343   17.3649   10.7000 H       1  UNL1        0.0000
     72 H           2.9910   18.5058   12.0359 H       1  UNL1        0.0000
     73 C          -0.8061   16.3246   13.3104 C.3     1  UNL1        0.0000
     74 H          -1.0560   17.2887   13.7711 H       1  UNL1        0.0000
     75 C          -1.7656   16.0619   12.1559 C.3     1  UNL1        0.0000
     76 H          -2.7900   16.0770   12.5266 H       1  UNL1        0.0000
     77 H          -1.5888   15.0849   11.7132 H       1  UNL1        0.0000
     78 H          -1.6803   16.8200   11.3804 H       1  UNL1        0.0000
     79 C          -0.9459   15.2542   14.3908 C.3     1  UNL1        0.0000
     80 H          -1.9498   15.2711   14.8118 H       1  UNL1        0.0000
     81 H          -0.2314   15.4263   15.1947 H       1  UNL1        0.0000
     82 H          -0.7736   14.2623   13.9832 H       1  UNL1        0.0000
     83 C           0.1908   12.1183   10.1739 C.2     1  UNL1        0.0000
     84 C           0.2973   11.9388   12.6566 C.3     1  UNL1        0.0000
     85 C           1.5323   10.2726   10.1955 C.3     1  UNL1        0.0000
@<TRIPOS>BOND
     1    14    11    1
     2    21    19    1
     3    12    11    1
     4    11    13    1
     5    11    10    1
     6    20    19    1
     7    26    23    1
     8    19    10    1
     9    19    22    1
    10    29    27    1
    11    17    15    1
    12    25    23    1
    13    23    24    1
    14    23     2    1
    15    10    15    1
    16    10     5    1
    17    27    28    1
    18    27    30    1
    19    27     2    1
    20    15    18    1
    21    15    16    1
    22     2     5    1
    23     2     6    1
    24     5    83   am
    25     9    85    1
    26    83     7    2
    27    83     1    1
    28    85     1    1
    29    33    31    1
    30    42    39    1
    31    70    69    1
    32    62    60    1
    33    71    69    1
    34    64    63    1
    35    40    39    1
    36     6    31    1
    37     6     1    1
    38     6    57    1
    39    41    39    1
    40    32    31    1
    41    39    37    1
    42    31    34    1
    43    69    63    1
    44    69    72    1
    45    78    75    1
    46    58    57    1
    47     1    84    1
    48     1     3    1
    49    66    65    1
    50    63    65    1
    51    63     4    1
    52    60    57    1
    53    60    61    1
    54    60     4    1
    55    57    59    1
    56    77    75    1
    57    75    76    1
    58    75    73    1
    59    65    68    1
    60    65    67    1
    61    36    34    1
    62    34     3    1
    63    34    35    1
    64    37    38    1
    65    37     3    1
    66    37    43    1
    67    84     8    1
    68     3    47    1
    69     4    73    1
    70    44    43    1
    71    73    74    1
    72    73    79    1
    73    43    46    1
    74    43    45    1
    75    82    79    1
    76    79    80    1
    77    79    81    1
    78    56    53    1
    79    51    49    1
    80    47    48    1
    81    47    53    1
    82    47    49    1
    83    55    53    1
    84    52    49    1
    85    53    54    1
    86    49    50    1
