@<TRIPOS>MOLECULE
CSD_code = CODHUA | q = 0 | S = 0 | Stoichiometry = C35H58BCoO2S3 | MND = 5
 100 104 0 0 0
SMALL
GASTEIGER

@<TRIPOS>ATOM
      1 CO          4.2561    0.4863    3.9654 Co.oh   1  UNL1        0.0000
      2 B           5.3991    3.8240    3.9588 B       1  UNL1        0.0000
      3 S           4.9649    1.6353    2.0752 S.3     1  UNL1        0.0000
      4 S           3.0158    2.3222    4.7027 S.3     1  UNL1        0.0000
      5 S           6.1581    1.2682    5.1320 S.3     1  UNL1        0.0000
      6 O           5.0808   -1.1033    3.5584 O.3     1  UNL1        0.0000
      7 O           2.7026   -0.5051    3.7564 O.3     1  UNL1        0.0000
      8 C           5.6541    6.3363    4.8040 C.ar    1  UNL1        0.0000
      9 H           4.9206    6.1382    5.5724 H       1  UNL1        0.0000
     10 C           6.2240    7.5971    4.7554 C.ar    1  UNL1        0.0000
     11 H           5.9227    8.3522    5.4693 H       1  UNL1        0.0000
     12 C           7.1788    7.8936    3.8002 C.ar    1  UNL1        0.0000
     13 H           7.6254    8.8771    3.7568 H       1  UNL1        0.0000
     14 C           7.5600    6.9091    2.9054 C.ar    1  UNL1        0.0000
     15 H           8.3138    7.1208    2.1586 H       1  UNL1        0.0000
     16 C           6.9807    5.6552    2.9669 C.ar    1  UNL1        0.0000
     17 H           7.3096    4.9028    2.2621 H       1  UNL1        0.0000
     18 C           6.0016    5.3291    3.9066 C.ar    1  UNL1        0.0000
     19 C           4.8546    3.4060    2.4556 C.3     1  UNL1        0.0000
     20 H           5.4496    3.8862    1.6806 H       1  UNL1        0.0000
     21 H           3.8173    3.7075    2.3280 H       1  UNL1        0.0000
     22 C           3.7480    1.4041    0.6744 C.3     1  UNL1        0.0000
     23 C           4.1535    2.3487   -0.4509 C.3     1  UNL1        0.0000
     24 H           3.5327    2.1583   -1.3247 H       1  UNL1        0.0000
     25 H           5.1936    2.1912   -0.7281 H       1  UNL1        0.0000
     26 H           4.0218    3.3884   -0.1629 H       1  UNL1        0.0000
     27 C           3.9147   -0.0456    0.2344 C.3     1  UNL1        0.0000
     28 H           3.6084   -0.7278    1.0232 H       1  UNL1        0.0000
     29 H           4.9531   -0.2531   -0.0154 H       1  UNL1        0.0000
     30 H           3.3011   -0.2423   -0.6430 H       1  UNL1        0.0000
     31 C           2.3291    1.6703    1.1438 C.3     1  UNL1        0.0000
     32 H           2.1827    2.7151    1.4079 H       1  UNL1        0.0000
     33 H           2.1014    1.0601    2.0140 H       1  UNL1        0.0000
     34 H           1.6267    1.4212    0.3504 H       1  UNL1        0.0000
     35 C           4.1705    3.6890    5.0462 C.3     1  UNL1        0.0000
     36 H           3.5340    4.5730    5.0487 H       1  UNL1        0.0000
     37 H           4.5658    3.5368    6.0485 H       1  UNL1        0.0000
     38 C           2.2939    1.8909    6.3705 C.3     1  UNL1        0.0000
     39 C           1.9414    3.1664    7.1234 C.3     1  UNL1        0.0000
     40 H           1.3174    3.8126    6.5099 H       1  UNL1        0.0000
     41 H           2.8285    3.7187    7.4219 H       1  UNL1        0.0000
     42 H           1.3861    2.9089    8.0241 H       1  UNL1        0.0000
     43 C           1.0287    1.1048    6.0525 C.3     1  UNL1        0.0000
     44 H           0.5743    0.7296    6.9675 H       1  UNL1        0.0000
     45 H           1.2705    0.2638    5.4096 H       1  UNL1        0.0000
     46 H           0.3078    1.7346    5.5362 H       1  UNL1        0.0000
     47 C           3.2882    1.0384    7.1425 C.3     1  UNL1        0.0000
     48 H           2.8561    0.7217    8.0908 H       1  UNL1        0.0000
     49 H           4.2029    1.5910    7.3488 H       1  UNL1        0.0000
     50 H           3.5476    0.1471    6.5646 H       1  UNL1        0.0000
     51 C           6.6577    2.8614    4.4129 C.3     1  UNL1        0.0000
     52 H           7.2505    3.3503    5.1864 H       1  UNL1        0.0000
     53 H           7.3070    2.6464    3.5671 H       1  UNL1        0.0000
     54 C           7.6894    0.2075    4.9829 C.3     1  UNL1        0.0000
     55 C           8.0168   -0.0720    3.5260 C.3     1  UNL1        0.0000
     56 H           8.2416    0.8445    2.9848 H       1  UNL1        0.0000
     57 H           7.1780   -0.5660    3.0438 H       1  UNL1        0.0000
     58 H           8.8892   -0.7211    3.4671 H       1  UNL1        0.0000
     59 C           8.8292    0.9431    5.6779 C.3     1  UNL1        0.0000
     60 H           9.7042    0.2965    5.7217 H       1  UNL1        0.0000
     61 H           8.5503    1.2120    6.6947 H       1  UNL1        0.0000
     62 H           9.1038    1.8479    5.1415 H       1  UNL1        0.0000
     63 C           7.3613   -1.0807    5.7272 C.3     1  UNL1        0.0000
     64 H           6.5232   -1.5828    5.2515 H       1  UNL1        0.0000
     65 H           7.1019   -0.8695    6.7627 H       1  UNL1        0.0000
     66 H           8.2205   -1.7486    5.7129 H       1  UNL1        0.0000
     67 C           4.2686   -2.0388    3.1404 C.ar    1  UNL1        0.0000
     68 C           2.8899   -1.7097    3.2659 C.ar    1  UNL1        0.0000
     69 C           1.9098   -2.6409    2.8525 C.ar    1  UNL1        0.0000
     70 C           2.3789   -3.8258    2.3225 C.ar    1  UNL1        0.0000
     71 H           1.6577   -4.5584    2.0050 H       1  UNL1        0.0000
     72 C           3.7380   -4.1539    2.1706 C.ar    1  UNL1        0.0000
     73 C           4.6909   -3.2502    2.5870 C.ar    1  UNL1        0.0000
     74 H           5.7491   -3.4376    2.5220 H       1  UNL1        0.0000
     75 C           0.4274   -2.3876    3.0816 C.3     1  UNL1        0.0000
     76 C           0.1743   -2.4880    4.5927 C.3     1  UNL1        0.0000
     77 H           0.3730   -3.4998    4.9409 H       1  UNL1        0.0000
     78 H          -0.8585   -2.2353    4.8232 H       1  UNL1        0.0000
     79 H           0.8271   -1.8093    5.1333 H       1  UNL1        0.0000
     80 C           0.0417   -0.9922    2.5792 C.3     1  UNL1        0.0000
     81 H           0.6002   -0.2280    3.1082 H       1  UNL1        0.0000
     82 H          -1.0198   -0.8158    2.7402 H       1  UNL1        0.0000
     83 H           0.2499   -0.9068    1.5147 H       1  UNL1        0.0000
     84 C          -0.4698   -3.4059    2.3708 C.3     1  UNL1        0.0000
     85 H          -0.2693   -3.4218    1.3017 H       1  UNL1        0.0000
     86 H          -1.5114   -3.1265    2.5165 H       1  UNL1        0.0000
     87 H          -0.3375   -4.4067    2.7747 H       1  UNL1        0.0000
     88 C           4.0961   -5.5002    1.5602 C.3     1  UNL1        0.0000
     89 C           3.5174   -6.6224    2.4338 C.3     1  UNL1        0.0000
     90 H           2.4338   -6.5684    2.4856 H       1  UNL1        0.0000
     91 H           3.9109   -6.5497    3.4454 H       1  UNL1        0.0000
     92 H           3.7903   -7.5933    2.0253 H       1  UNL1        0.0000
     93 C           5.6089   -5.7114    1.4569 C.3     1  UNL1        0.0000
     94 H           5.8108   -6.6827    1.0096 H       1  UNL1        0.0000
     95 H           6.0731   -5.6905    2.4398 H       1  UNL1        0.0000
     96 H           6.0664   -4.9497    0.8304 H       1  UNL1        0.0000
     97 C           3.5056   -5.5843    0.1455 C.3     1  UNL1        0.0000
     98 H           3.7723   -6.5331   -0.3155 H       1  UNL1        0.0000
     99 H           3.8962   -4.7777   -0.4712 H       1  UNL1        0.0000
    100 H           2.4222   -5.5069    0.1610 H       1  UNL1        0.0000
@<TRIPOS>BOND
     1    24    23    1
     2    25    23    1
     3    30    27    1
     4    99    97    1
     5    23    26    1
     6    23    22    1
     7    98    97    1
     8    29    27    1
     9    97   100    1
    10    97    88    1
    11    27    22    1
    12    27    28    1
    13    34    31    1
    14    22    31    1
    15    22     3    1
    16    96    93    1
    17    94    93    1
    18    31    32    1
    19    31    33    1
    20    85    84    1
    21    93    88    1
    22    93    95    1
    23    83    80    1
    24    88    72    1
    25    88    89    1
    26    20    19    1
    27    71    70    1
    28    92    89    1
    29     3    19    1
    30     3     1    1
    31    15    14    1
    32    72    70   ar
    33    72    73   ar
    34    17    16    1
    35    70    69   ar
    36    21    19    1
    37    84    86    1
    38    84    87    1
    39    84    75    1
    40    89    90    1
    41    89    91    1
    42    19     2    1
    43    74    73    1
    44    80    82    1
    45    80    75    1
    46    80    81    1
    47    73    67   ar
    48    69    75    1
    49    69    68   ar
    50    14    16   ar
    51    14    12   ar
    52    16    18   ar
    53    56    55    1
    54    57    55    1
    55    75    76    1
    56    67    68   ar
    57    67     6    1
    58    68     7    1
    59    58    55    1
    60    55    54    1
    61     6     1    1
    62    53    51    1
    63     7     1    1
    64    13    12    1
    65    12    10   ar
    66    18     2    1
    67    18     8   ar
    68     2    51    1
    69     2    35    1
    70     1     4    1
    71     1     5    1
    72    51     5    1
    73    51    52    1
    74    76    78    1
    75    76    77    1
    76    76    79    1
    77     4    35    1
    78     4    38    1
    79    10     8   ar
    80    10    11    1
    81     8     9    1
    82    54     5    1
    83    54    59    1
    84    54    63    1
    85    35    36    1
    86    35    37    1
    87    62    59    1
    88    64    63    1
    89    45    43    1
    90    46    43    1
    91    59    60    1
    92    59    61    1
    93    66    63    1
    94    63    65    1
    95    43    38    1
    96    43    44    1
    97    38    39    1
    98    38    47    1
    99    40    39    1
   100    50    47    1
   101    39    41    1
   102    39    42    1
   103    47    49    1
   104    47    48    1
