@<TRIPOS>MOLECULE
CSD_code = XONCUZ | q = 0 | S = 0 | Stoichiometry = C39H53BCoO3PS3 | MND = 4
 101 106 0 0 0
SMALL
GASTEIGER

@<TRIPOS>ATOM
      1 CO          8.8147   13.5404    1.3028 Co.oh   1  UNL1        0.0000
      2 B          11.4898   14.6483    3.2661 B       1  UNL1        0.0000
      3 O           5.9402   13.8226   -0.1708 O.3     1  UNL1        0.0000
      4 O           7.4659   15.5047   -1.1060 O.3     1  UNL1        0.0000
      5 O           7.8027   13.1865   -1.6967 O.3     1  UNL1        0.0000
      6 P           7.5455   14.1026   -0.3612 P.3     1  UNL1        0.0000
      7 S           9.8631   12.2786    2.7523 S.3     1  UNL1        0.0000
      8 S           8.6096   15.3311    2.9188 S.3     1  UNL1        0.0000
      9 S          10.9804   14.5188    0.3787 S.3     1  UNL1        0.0000
     10 C          12.2594   15.4291    5.6485 C.ar    1  UNL1        0.0000
     11 H          11.2109   15.4484    5.9166 H       1  UNL1        0.0000
     12 C          13.1876   15.7537    6.6204 C.ar    1  UNL1        0.0000
     13 H          12.8577   16.0254    7.6149 H       1  UNL1        0.0000
     14 C          14.5392   15.7289    6.3243 C.ar    1  UNL1        0.0000
     15 H          15.2714   15.9839    7.0781 H       1  UNL1        0.0000
     16 C          14.9381   15.3657    5.0511 C.ar    1  UNL1        0.0000
     17 H          15.9917   15.3316    4.8054 H       1  UNL1        0.0000
     18 C          13.9953   15.0425    4.0901 C.ar    1  UNL1        0.0000
     19 H          14.3469   14.7522    3.1103 H       1  UNL1        0.0000
     20 C          12.6268   15.0752    4.3492 C.ar    1  UNL1        0.0000
     21 C          10.8905   13.2385    3.8807 C.3     1  UNL1        0.0000
     22 H          10.2911   13.4485    4.7629 H       1  UNL1        0.0000
     23 H          11.7057   12.5728    4.1684 H       1  UNL1        0.0000
     24 C           8.6149   11.4423    3.8642 C.3     1  UNL1        0.0000
     25 C           9.3792   10.6751    4.9356 C.3     1  UNL1        0.0000
     26 H           8.6824   10.0996    5.5433 H       1  UNL1        0.0000
     27 H           9.9254   11.3473    5.5923 H       1  UNL1        0.0000
     28 H          10.0878    9.9862    4.4797 H       1  UNL1        0.0000
     29 C           7.8441   10.4720    2.9761 C.3     1  UNL1        0.0000
     30 H           7.1209    9.9161    3.5700 H       1  UNL1        0.0000
     31 H           8.5202    9.7621    2.5055 H       1  UNL1        0.0000
     32 H           7.2992   11.0080    2.2013 H       1  UNL1        0.0000
     33 C           7.6667   12.4624    4.4705 C.3     1  UNL1        0.0000
     34 H           6.9335   11.9585    5.0986 H       1  UNL1        0.0000
     35 H           7.1424   12.9987    3.6813 H       1  UNL1        0.0000
     36 H           8.1988   13.1883    5.0802 H       1  UNL1        0.0000
     37 C          10.3409   15.8298    3.2104 C.3     1  UNL1        0.0000
     38 H          10.5927   16.5289    2.4184 H       1  UNL1        0.0000
     39 H          10.3030   16.3756    4.1521 H       1  UNL1        0.0000
     40 C           7.8301   16.9391    2.3734 C.3     1  UNL1        0.0000
     41 C           7.8911   17.9017    3.5550 C.3     1  UNL1        0.0000
     42 H           7.3790   18.8282    3.2998 H       1  UNL1        0.0000
     43 H           8.9191   18.1428    3.8130 H       1  UNL1        0.0000
     44 H           7.4074   17.4675    4.4275 H       1  UNL1        0.0000
     45 C           8.5385   17.5149    1.1564 C.3     1  UNL1        0.0000
     46 H           7.9017   18.2589    0.6806 H       1  UNL1        0.0000
     47 H           8.7502   16.7302    0.4341 H       1  UNL1        0.0000
     48 H           9.4720   18.0001    1.4316 H       1  UNL1        0.0000
     49 C           6.3786   16.6138    2.0485 C.3     1  UNL1        0.0000
     50 H           5.8356   17.5249    1.8031 H       1  UNL1        0.0000
     51 H           5.8969   16.1471    2.9059 H       1  UNL1        0.0000
     52 H           6.3251   15.9426    1.1949 H       1  UNL1        0.0000
     53 C          12.1504   14.4282    1.7767 C.3     1  UNL1        0.0000
     54 H          12.6457   13.4602    1.7101 H       1  UNL1        0.0000
     55 H          12.8777   15.2117    1.5658 H       1  UNL1        0.0000
     56 C          11.9514   13.8179   -1.0502 C.3     1  UNL1        0.0000
     57 C          13.3291   14.4668   -1.1011 C.3     1  UNL1        0.0000
     58 H          13.8331   14.1798   -2.0232 H       1  UNL1        0.0000
     59 H          13.9473   14.1498   -0.2654 H       1  UNL1        0.0000
     60 H          13.2416   15.5510   -1.0795 H       1  UNL1        0.0000
     61 C          12.0634   12.3081   -0.9041 C.3     1  UNL1        0.0000
     62 H          12.6426   11.8922   -1.7277 H       1  UNL1        0.0000
     63 H          11.0773   11.8506   -0.9088 H       1  UNL1        0.0000
     64 H          12.5595   12.0440    0.0277 H       1  UNL1        0.0000
     65 C          11.1591   14.1920   -2.2980 C.3     1  UNL1        0.0000
     66 H          11.6166   13.7513   -3.1822 H       1  UNL1        0.0000
     67 H          11.1366   15.2726   -2.4187 H       1  UNL1        0.0000
     68 H          10.1349   13.8377   -2.2277 H       1  UNL1        0.0000
     69 C           5.3204   11.5158    0.0145 C.ar    1  UNL1        0.0000
     70 H           5.6407   11.3512   -1.0035 H       1  UNL1        0.0000
     71 C           4.7730   10.4855    0.7579 C.ar    1  UNL1        0.0000
     72 H           4.6745    9.5057    0.3156 H       1  UNL1        0.0000
     73 C           4.3548   10.7084    2.0591 C.ar    1  UNL1        0.0000
     74 H           3.9251    9.9024    2.6341 H       1  UNL1        0.0000
     75 C           4.4892   11.9674    2.6191 C.ar    1  UNL1        0.0000
     76 H           4.1665   12.1472    3.6334 H       1  UNL1        0.0000
     77 C           5.0409   13.0035    1.8858 C.ar    1  UNL1        0.0000
     78 H           5.1487   13.9898    2.3069 H       1  UNL1        0.0000
     79 C           5.4520   12.7785    0.5789 C.ar    1  UNL1        0.0000
     80 C           6.0498   15.1918   -3.0508 C.ar    1  UNL1        0.0000
     81 H           5.3773   14.5752   -2.4764 H       1  UNL1        0.0000
     82 C           5.8020   15.4703   -4.3840 C.ar    1  UNL1        0.0000
     83 H           4.9229   15.0596   -4.8582 H       1  UNL1        0.0000
     84 C           6.6708   16.2698   -5.1066 C.ar    1  UNL1        0.0000
     85 H           6.4724   16.4834   -6.1461 H       1  UNL1        0.0000
     86 C           7.7951   16.7953   -4.4917 C.ar    1  UNL1        0.0000
     87 H           8.4764   17.4199   -5.0497 H       1  UNL1        0.0000
     88 C           8.0550   16.5177   -3.1620 C.ar    1  UNL1        0.0000
     89 H           8.9276   16.9129   -2.6661 H       1  UNL1        0.0000
     90 C           7.1795   15.7154   -2.4437 C.ar    1  UNL1        0.0000
     91 C           8.6549   11.2352   -0.5513 C.ar    1  UNL1        0.0000
     92 H           8.6124   11.7528    0.4112 H       1  UNL1        0.0000
     93 C           9.1108    9.9316   -0.6310 C.ar    1  UNL1        0.0000
     94 H           9.4221    9.4222    0.2675 H       1  UNL1        0.0000
     95 C           9.1783    9.2895   -1.8553 C.ar    1  UNL1        0.0000
     96 H           9.5328    8.2722   -1.9140 H       1  UNL1        0.0000
     97 C           8.7941    9.9606   -3.0049 C.ar    1  UNL1        0.0000
     98 H           8.8493    9.4679   -3.9638 H       1  UNL1        0.0000
     99 C           8.3394   11.2638   -2.9351 C.ar    1  UNL1        0.0000
    100 H           8.0379   11.8035   -3.8196 H       1  UNL1        0.0000
    101 C           8.2662   11.9040   -1.7014 C.ar    1  UNL1        0.0000
@<TRIPOS>BOND
     1    85    84    1
     2    84    86   ar
     3    84    82   ar
     4    87    86    1
     5    83    82    1
     6    86    88   ar
     7    82    80   ar
     8    98    97    1
     9   100    99    1
    10    66    65    1
    11    88    89    1
    12    88    90   ar
    13    80    81    1
    14    80    90   ar
    15    97    99   ar
    16    97    95   ar
    17    99   101   ar
    18    90     4    1
    19    67    65    1
    20    65    68    1
    21    65    56    1
    22    58    57    1
    23    96    95    1
    24    95    93   ar
    25    62    61    1
    26   101     5    1
    27   101    91   ar
    28     5     6    1
    29     4     6    1
    30    57    60    1
    31    57    56    1
    32    57    59    1
    33    56    61    1
    34    56     9    1
    35    70    69    1
    36    63    61    1
    37    61    64    1
    38    93    91   ar
    39    93    94    1
    40    91    92    1
    41     6     3    1
    42     6     1    1
    43     3    79    1
    44    69    79   ar
    45    69    71   ar
    46    72    71    1
    47     9     1    1
    48     9    53    1
    49    47    45    1
    50    79    77   ar
    51    46    45    1
    52    71    73   ar
    53    45    48    1
    54    45    40    1
    55    52    49    1
    56     1     7    1
    57     1     8    1
    58    55    53    1
    59    54    53    1
    60    53     2    1
    61    50    49    1
    62    77    78    1
    63    77    75   ar
    64    49    40    1
    65    49    51    1
    66    73    75   ar
    67    73    74    1
    68    32    29    1
    69    40     8    1
    70    40    41    1
    71    38    37    1
    72    31    29    1
    73    75    76    1
    74     7    24    1
    75     7    21    1
    76     8    37    1
    77    29    30    1
    78    29    24    1
    79    19    18    1
    80    37     2    1
    81    37    39    1
    82     2    21    1
    83     2    20    1
    84    42    41    1
    85    41    43    1
    86    41    44    1
    87    35    33    1
    88    24    33    1
    89    24    25    1
    90    21    23    1
    91    21    22    1
    92    18    20   ar
    93    18    16   ar
    94    20    10   ar
    95    33    36    1
    96    33    34    1
    97    28    25    1
    98    17    16    1
    99    25    26    1
   100    25    27    1
   101    16    14   ar
   102    10    11    1
   103    10    12   ar
   104    14    12   ar
   105    14    15    1
   106    12    13    1
