@<TRIPOS>MOLECULE
CSD_code = XONCIN | q = 0 | S = 0 | Stoichiometry = C34H51BCoPS3 | MND = 4
 91 95 0 0 0
SMALL
GASTEIGER

@<TRIPOS>ATOM
      1 CO         11.6369   10.1193   10.1775 Co.oh   1  UNL1        0.0000
      2 B          14.6406   11.0202    8.4725 B       1  UNL1        0.0000
      3 P          10.1299   10.4830   11.7649 P.3     1  UNL1        0.0000
      4 S          13.7157   10.5672   11.2613 S.3     1  UNL1        0.0000
      5 S          11.9846   12.3215    8.7456 S.3     1  UNL1        0.0000
      6 S          12.6804    8.9428    8.6312 S.3     1  UNL1        0.0000
      7 C          16.6342   12.4833    7.4769 C.ar    1  UNL1        0.0000
      8 H          16.0612   13.3767    7.6808 H       1  UNL1        0.0000
      9 C          17.8949   12.6297    6.9236 C.ar    1  UNL1        0.0000
     10 H          18.2738   13.6187    6.6998 H       1  UNL1        0.0000
     11 C          18.6724   11.5173    6.6580 C.ar    1  UNL1        0.0000
     12 H          19.6571   11.6259    6.2243 H       1  UNL1        0.0000
     13 C          18.1731   10.2631    6.9625 C.ar    1  UNL1        0.0000
     14 H          18.7724    9.3822    6.7705 H       1  UNL1        0.0000
     15 C          16.9113   10.1349    7.5132 C.ar    1  UNL1        0.0000
     16 H          16.5542    9.1406    7.7495 H       1  UNL1        0.0000
     17 C          16.0944   11.2350    7.7788 C.ar    1  UNL1        0.0000
     18 C          14.9907   10.4194    9.9737 C.3     1  UNL1        0.0000
     19 H          15.8614   10.9257   10.3925 H       1  UNL1        0.0000
     20 H          15.2224    9.3590    9.8879 H       1  UNL1        0.0000
     21 C          14.1287    9.2155   12.4759 C.3     1  UNL1        0.0000
     22 C          15.6279    9.1791   12.7353 C.3     1  UNL1        0.0000
     23 H          15.8403    8.4739   13.5378 H       1  UNL1        0.0000
     24 H          15.9866   10.1610   13.0368 H       1  UNL1        0.0000
     25 H          16.1806    8.8640   11.8544 H       1  UNL1        0.0000
     26 C          13.6165    7.8905   11.9329 C.3     1  UNL1        0.0000
     27 H          13.7878    7.0918   12.6534 H       1  UNL1        0.0000
     28 H          14.1201    7.6306   11.0043 H       1  UNL1        0.0000
     29 H          12.5452    7.9597   11.7348 H       1  UNL1        0.0000
     30 C          13.3854    9.5987   13.7487 C.3     1  UNL1        0.0000
     31 H          13.4921    8.8213   14.5029 H       1  UNL1        0.0000
     32 H          12.3286    9.7234   13.5257 H       1  UNL1        0.0000
     33 H          13.7726   10.5330   14.1488 H       1  UNL1        0.0000
     34 C          13.8001   12.4295    8.5265 C.3     1  UNL1        0.0000
     35 H          13.9128   12.9783    7.5906 H       1  UNL1        0.0000
     36 H          14.1623   13.0475    9.3440 H       1  UNL1        0.0000
     37 C          11.5819   13.9275    9.5955 C.3     1  UNL1        0.0000
     38 C          10.0614   13.9757    9.6948 C.3     1  UNL1        0.0000
     39 H           9.7428   14.9080   10.1587 H       1  UNL1        0.0000
     40 H           9.6916   13.1438   10.2888 H       1  UNL1        0.0000
     41 H           9.6144   13.9117    8.7053 H       1  UNL1        0.0000
     42 C          12.0756   15.0832    8.7340 C.3     1  UNL1        0.0000
     43 H          11.7891   16.0301    9.1902 H       1  UNL1        0.0000
     44 H          11.6364   15.0301    7.7399 H       1  UNL1        0.0000
     45 H          13.1579   15.0688    8.6343 H       1  UNL1        0.0000
     46 C          12.2155   13.9513   10.9799 C.3     1  UNL1        0.0000
     47 H          11.7741   14.7440   11.5827 H       1  UNL1        0.0000
     48 H          13.2862   14.1320   10.9222 H       1  UNL1        0.0000
     49 H          12.0641   12.9937   11.4750 H       1  UNL1        0.0000
     50 C          13.7833    9.9139    7.5900 C.3     1  UNL1        0.0000
     51 H          14.4260    9.1910    7.0876 H       1  UNL1        0.0000
     52 H          13.1779   10.4158    6.8407 H       1  UNL1        0.0000
     53 C          11.2659    8.3974    7.5516 C.3     1  UNL1        0.0000
     54 C          10.2163    7.9467    8.5612 C.3     1  UNL1        0.0000
     55 H           9.2758    7.6951    8.0732 H       1  UNL1        0.0000
     56 H          10.0345    8.7664    9.2691 H       1  UNL1        0.0000
     57 H          10.5697    7.0783    9.1150 H       1  UNL1        0.0000
     58 C          11.7500    7.2360    6.6934 C.3     1  UNL1        0.0000
     59 H          10.9286    6.8410    6.0971 H       1  UNL1        0.0000
     60 H          12.1414    6.4352    7.3179 H       1  UNL1        0.0000
     61 H          12.5384    7.5615    6.0178 H       1  UNL1        0.0000
     62 C          10.7313    9.5326    6.6908 C.3     1  UNL1        0.0000
     63 H           9.7543    9.2617    6.2922 H       1  UNL1        0.0000
     64 H          11.3902    9.7333    5.8492 H       1  UNL1        0.0000
     65 H          10.6301   10.4468    7.2731 H       1  UNL1        0.0000
     66 C          10.0301   11.8419   13.0083 C.3     1  UNL1        0.0000
     67 H           9.1837   11.6888   13.6763 H       1  UNL1        0.0000
     68 H           9.9035   12.7868   12.4858 H       1  UNL1        0.0000
     69 H          10.9560   11.8879   13.5791 H       1  UNL1        0.0000
     70 C           9.3010    7.8764   12.2055 C.ar    1  UNL1        0.0000
     71 H           9.1402    7.8789   11.1375 H       1  UNL1        0.0000
     72 C           9.0267    6.7368   12.9364 C.ar    1  UNL1        0.0000
     73 H           8.6608    5.8522   12.4358 H       1  UNL1        0.0000
     74 C           9.2192    6.7298   14.3082 C.ar    1  UNL1        0.0000
     75 H           9.0063    5.8406   14.8827 H       1  UNL1        0.0000
     76 C           9.6836    7.8708   14.9381 C.ar    1  UNL1        0.0000
     77 H           9.8338    7.8749   16.0081 H       1  UNL1        0.0000
     78 C           9.9563    9.0140   14.2064 C.ar    1  UNL1        0.0000
     79 H          10.3158    9.8901   14.7247 H       1  UNL1        0.0000
     80 C           9.7656    9.0316   12.8292 C.ar    1  UNL1        0.0000
     81 C           8.3845   10.9391    9.6504 C.ar    1  UNL1        0.0000
     82 H           9.2986   11.0703    9.0838 H       1  UNL1        0.0000
     83 C           7.1538   11.0705    9.0330 C.ar    1  UNL1        0.0000
     84 H           7.1011   11.2942    7.9777 H       1  UNL1        0.0000
     85 C           5.9933   10.9134    9.7712 C.ar    1  UNL1        0.0000
     86 H           5.0295   11.0127    9.2941 H       1  UNL1        0.0000
     87 C           6.0686   10.6252   11.1251 C.ar    1  UNL1        0.0000
     88 H           5.1631   10.5004   11.7009 H       1  UNL1        0.0000
     89 C           7.2986   10.4928   11.7422 C.ar    1  UNL1        0.0000
     90 H           7.3503   10.2537   12.7955 H       1  UNL1        0.0000
     91 C           8.4681   10.6517   11.0070 C.ar    1  UNL1        0.0000
@<TRIPOS>BOND
     1    64    62    1
     2    61    58    1
     3    59    58    1
     4    12    11    1
     5    63    62    1
     6    11     9   ar
     7    11    13   ar
     8    62    65    1
     9    62    53    1
    10    58    60    1
    11    58    53    1
    12    10     9    1
    13    14    13    1
    14    52    50    1
    15     9     7   ar
    16    13    15   ar
    17    51    50    1
    18     7     8    1
    19     7    17   ar
    20    15    16    1
    21    15    17   ar
    22    53    54    1
    23    53     6    1
    24    50     2    1
    25    50     6    1
    26    35    34    1
    27    44    42    1
    28    17     2    1
    29    84    83    1
    30    55    54    1
    31     2    34    1
    32     2    18    1
    33    34     5    1
    34    34    36    1
    35    54    57    1
    36    54    56    1
    37     6     1    1
    38    45    42    1
    39    41    38    1
    40    42    43    1
    41    42    37    1
    42     5    37    1
    43     5     1    1
    44    83    81   ar
    45    83    85   ar
    46    82    81    1
    47    86    85    1
    48    37    38    1
    49    37    46    1
    50    81    91   ar
    51    38    39    1
    52    38    40    1
    53    85    87   ar
    54    20    18    1
    55    18    19    1
    56    18     4    1
    57     1     4    1
    58     1     3    1
    59    48    46    1
    60    46    49    1
    61    46    47    1
    62    28    26    1
    63    91    89   ar
    64    91     3    1
    65    87    88    1
    66    87    89   ar
    67    71    70    1
    68     4    21    1
    69    29    26    1
    70    89    90    1
    71     3    80    1
    72     3    66    1
    73    25    22    1
    74    26    21    1
    75    26    27    1
    76    70    80   ar
    77    70    72   ar
    78    73    72    1
    79    21    22    1
    80    21    30    1
    81    68    66    1
    82    22    24    1
    83    22    23    1
    84    80    78   ar
    85    72    74   ar
    86    66    69    1
    87    66    67    1
    88    32    30    1
    89    30    33    1
    90    30    31    1
    91    78    79    1
    92    78    76   ar
    93    74    75    1
    94    74    76   ar
    95    76    77    1
