@<TRIPOS>MOLECULE
CSD_code = XONCEJ | q = 0 | S = 0 | Stoichiometry = C24H47BCoPS3 | MND = 4
 77 79 0 0 0
SMALL
GASTEIGER

@<TRIPOS>ATOM
      1 CO          3.2529    6.0996    2.6097 Co.oh   1  UNL1        0.0000
      2 S           3.5910    8.2522    2.8095 S.3     1  UNL1        0.0000
      3 S           5.1508    5.8190    0.7544 S.3     1  UNL1        0.0000
      4 S           1.7294    6.5061    0.8778 S.3     1  UNL1        0.0000
      5 P           2.7363    4.1438    3.5531 P.3     1  UNL1        0.0000
      6 B           3.8325    8.3486   -0.0431 B       1  UNL1        0.0000
      7 C           3.4440    9.1925   -2.4913 C.ar    1  UNL1        0.0000
      8 H           2.8111    8.3250   -2.6258 H       1  UNL1        0.0000
      9 C           3.6334   10.0374   -3.5691 C.ar    1  UNL1        0.0000
     10 H           3.1438    9.8301   -4.5120 H       1  UNL1        0.0000
     11 C           4.4520   11.1464   -3.4460 C.ar    1  UNL1        0.0000
     12 H           4.6035   11.8134   -4.2837 H       1  UNL1        0.0000
     13 C           5.0812   11.3816   -2.2374 C.ar    1  UNL1        0.0000
     14 H           5.7356   12.2368   -2.1274 H       1  UNL1        0.0000
     15 C           4.8807   10.5250   -1.1684 C.ar    1  UNL1        0.0000
     16 H           5.4032   10.7348   -0.2454 H       1  UNL1        0.0000
     17 C           4.0462    9.4123   -1.2514 C.ar    1  UNL1        0.0000
     18 C           4.4732    8.9053    1.3803 C.3     1  UNL1        0.0000
     19 H           4.3774    9.9876    1.4701 H       1  UNL1        0.0000
     20 H           5.5215    8.6316    1.4799 H       1  UNL1        0.0000
     21 C           4.8169    8.1344    4.2006 C.3     1  UNL1        0.0000
     22 C           5.7845    6.9998    3.9028 C.3     1  UNL1        0.0000
     23 H           6.4190    6.7977    4.7652 H       1  UNL1        0.0000
     24 H           6.4196    7.2331    3.0516 H       1  UNL1        0.0000
     25 H           5.2194    6.0896    3.6576 H       1  UNL1        0.0000
     26 C           5.5268    9.4659    4.3872 C.3     1  UNL1        0.0000
     27 H           6.1937    9.4149    5.2471 H       1  UNL1        0.0000
     28 H           4.8055   10.2632    4.5572 H       1  UNL1        0.0000
     29 H           6.1206    9.7178    3.5116 H       1  UNL1        0.0000
     30 C           3.9624    7.7916    5.4179 C.3     1  UNL1        0.0000
     31 H           4.5872    7.6381    6.2964 H       1  UNL1        0.0000
     32 H           3.4002    6.8758    5.2208 H       1  UNL1        0.0000
     33 H           3.2534    8.5894    5.6281 H       1  UNL1        0.0000
     34 C           4.6105    6.9850   -0.5446 C.3     1  UNL1        0.0000
     35 H           5.5211    7.2413   -1.0894 H       1  UNL1        0.0000
     36 H           3.9630    6.4202   -1.2109 H       1  UNL1        0.0000
     37 C           5.1297    4.1689   -0.0983 C.3     1  UNL1        0.0000
     38 C           6.0138    4.2290   -1.3367 C.3     1  UNL1        0.0000
     39 H           6.0649    3.2460   -1.8038 H       1  UNL1        0.0000
     40 H           7.0215    4.5388   -1.0680 H       1  UNL1        0.0000
     41 H           5.6205    4.9328   -2.0662 H       1  UNL1        0.0000
     42 C           5.7128    3.1936    0.9176 C.3     1  UNL1        0.0000
     43 H           5.7390    2.1847    0.5088 H       1  UNL1        0.0000
     44 H           5.1010    3.1951    1.8169 H       1  UNL1        0.0000
     45 H           6.7239    3.4883    1.1890 H       1  UNL1        0.0000
     46 C           3.7005    3.7815   -0.4486 C.3     1  UNL1        0.0000
     47 H           3.6603    2.7437   -0.7777 H       1  UNL1        0.0000
     48 H           3.3081    4.4047   -1.2483 H       1  UNL1        0.0000
     49 H           3.0583    3.9088    0.4214 H       1  UNL1        0.0000
     50 C           2.2086    8.1079    0.1654 C.3     1  UNL1        0.0000
     51 H           1.6740    8.1517   -0.7822 H       1  UNL1        0.0000
     52 H           1.8029    8.8804    0.8187 H       1  UNL1        0.0000
     53 C          -0.0026    6.7809    1.5130 C.3     1  UNL1        0.0000
     54 C           0.0717    7.5000    2.8510 C.3     1  UNL1        0.0000
     55 H          -0.9203    7.5924    3.2913 H       1  UNL1        0.0000
     56 H           0.4881    8.4975    2.7297 H       1  UNL1        0.0000
     57 H           0.7150    6.9454    3.5344 H       1  UNL1        0.0000
     58 C          -0.5816    5.3798    1.6725 C.3     1  UNL1        0.0000
     59 H          -1.5597    5.4206    2.1484 H       1  UNL1        0.0000
     60 H           0.0847    4.7740    2.2821 H       1  UNL1        0.0000
     61 H          -0.6848    4.9007    0.7017 H       1  UNL1        0.0000
     62 C          -0.8192    7.5696    0.4997 C.3     1  UNL1        0.0000
     63 H          -1.8587    7.6086    0.8229 H       1  UNL1        0.0000
     64 H          -0.7820    7.0919   -0.4770 H       1  UNL1        0.0000
     65 H          -0.4575    8.5896    0.4025 H       1  UNL1        0.0000
     66 C           1.4449    4.2720    4.8679 C.3     1  UNL1        0.0000
     67 H           1.4209    3.3601    5.4627 H       1  UNL1        0.0000
     68 H           0.4654    4.4353    4.4267 H       1  UNL1        0.0000
     69 H           1.6710    5.1142    5.5188 H       1  UNL1        0.0000
     70 C           4.0956    3.5079    4.6289 C.3     1  UNL1        0.0000
     71 H           3.7951    2.5823    5.1178 H       1  UNL1        0.0000
     72 H           4.3282    4.2531    5.3877 H       1  UNL1        0.0000
     73 H           4.9929    3.3274    4.0416 H       1  UNL1        0.0000
     74 C           2.1982    2.5580    2.7831 C.3     1  UNL1        0.0000
     75 H           1.9197    1.8395    3.5529 H       1  UNL1        0.0000
     76 H           3.0076    2.1477    2.1846 H       1  UNL1        0.0000
     77 H           1.3462    2.7347    2.1302 H       1  UNL1        0.0000
@<TRIPOS>BOND
     1    10     9    1
     2    12    11    1
     3     9    11   ar
     4     9     7   ar
     5    11    13   ar
     6     8     7    1
     7     7    17   ar
     8    13    14    1
     9    13    15   ar
    10    41    38    1
    11    39    38    1
    12    38    40    1
    13    38    37    1
    14    17    15   ar
    15    17     6    1
    16    48    46    1
    17    36    34    1
    18    15    16    1
    19    35    34    1
    20    51    50    1
    21    47    46    1
    22    34     6    1
    23    34     3    1
    24    64    62    1
    25    46    37    1
    26    46    49    1
    27    37     3    1
    28    37    42    1
    29     6    50    1
    30     6    18    1
    31    50    52    1
    32    50     4    1
    33    65    62    1
    34    62    63    1
    35    62    53    1
    36    43    42    1
    37    61    58    1
    38     3     1    1
    39     4    53    1
    40     4     1    1
    41    42    45    1
    42    42    44    1
    43    18    19    1
    44    18    20    1
    45    18     2    1
    46    53    58    1
    47    53    54    1
    48    58    59    1
    49    58    60    1
    50    77    74    1
    51    76    74    1
    52     1     2    1
    53     1     5    1
    54    56    54    1
    55    74    75    1
    56    74     5    1
    57     2    21    1
    58    54    55    1
    59    54    57    1
    60    24    22    1
    61    29    26    1
    62     5    70    1
    63     5    66    1
    64    25    22    1
    65    22    21    1
    66    22    23    1
    67    73    70    1
    68    21    26    1
    69    21    30    1
    70    26    28    1
    71    26    27    1
    72    68    66    1
    73    70    71    1
    74    70    72    1
    75    66    67    1
    76    66    69    1
    77    32    30    1
    78    30    33    1
    79    30    31    1
