@<TRIPOS>MOLECULE
CSD_code = IQOFUR | q = 0 | S = 0 | Stoichiometry = C25H39Br2CoP2Si | MND = 5
 70 73 0 0 0
SMALL
GASTEIGER

@<TRIPOS>ATOM
      1 CO          2.3086    4.4699    4.1389 Co.oh   1  UNL1        0.0000
      2 P           2.6534    5.3587    6.1652 P.3     1  UNL1        0.0000
      3 P           1.5303    2.9640    2.7107 P.3     1  UNL1        0.0000
      4 SI          4.1883    3.0219    4.5586 Si      1  UNL1        0.0000
      5 BR          0.3810    5.7114    3.6832 Br      1  UNL1        0.0000
      6 BR          4.4059    4.9558    3.0986 Br      1  UNL1        0.0000
      7 C           6.0610    2.9884    4.9559 C.3     1  UNL1        0.0000
      8 H           6.2866    2.1627    5.6228 H       1  UNL1        0.0000
      9 H           6.3975    3.8977    5.4450 H       1  UNL1        0.0000
     10 H           6.6510    2.8736    4.0517 H       1  UNL1        0.0000
     11 C           3.4269    2.7308    6.2907 C.ar    1  UNL1        0.0000
     12 C           2.8846    3.7709    7.0512 C.ar    1  UNL1        0.0000
     13 C           2.5128    3.5224    8.3688 C.ar    1  UNL1        0.0000
     14 H           2.1040    4.3102    8.9827 H       1  UNL1        0.0000
     15 C           2.6601    2.2601    8.9150 C.ar    1  UNL1        0.0000
     16 H           2.3680    2.0834    9.9399 H       1  UNL1        0.0000
     17 C           3.1717    1.2242    8.1510 C.ar    1  UNL1        0.0000
     18 H           3.2724    0.2349    8.5725 H       1  UNL1        0.0000
     19 C           3.5611    1.4657    6.8472 C.ar    1  UNL1        0.0000
     20 H           3.9694    0.6631    6.2486 H       1  UNL1        0.0000
     21 C           3.8355    1.5933    3.3642 C.ar    1  UNL1        0.0000
     22 C           2.7059    1.5659    2.5445 C.ar    1  UNL1        0.0000
     23 C           2.4772    0.4567    1.7372 C.ar    1  UNL1        0.0000
     24 H           1.5903    0.3968    1.1283 H       1  UNL1        0.0000
     25 C           3.3739   -0.5956    1.7155 C.ar    1  UNL1        0.0000
     26 H           3.1863   -1.4472    1.0775 H       1  UNL1        0.0000
     27 C           4.5020   -0.5621    2.5173 C.ar    1  UNL1        0.0000
     28 H           5.2031   -1.3836    2.5063 H       1  UNL1        0.0000
     29 C           4.7194    0.5249    3.3427 C.ar    1  UNL1        0.0000
     30 H           5.5906    0.5435    3.9789 H       1  UNL1        0.0000
     31 C           4.5501    6.3963    8.0482 C.3     1  UNL1        0.0000
     32 H           5.5764    6.7336    8.1885 H       1  UNL1        0.0000
     33 H           4.4174    5.4726    8.6100 H       1  UNL1        0.0000
     34 H           3.8920    7.1584    8.4594 H       1  UNL1        0.0000
     35 C           4.2884    6.1828    6.5624 C.3     1  UNL1        0.0000
     36 H           5.0191    5.4491    6.1938 H       1  UNL1        0.0000
     37 C           4.4757    7.4722    5.7642 C.3     1  UNL1        0.0000
     38 H           3.9895    8.3116    6.2531 H       1  UNL1        0.0000
     39 H           4.0632    7.3767    4.7611 H       1  UNL1        0.0000
     40 H           5.5349    7.7054    5.6719 H       1  UNL1        0.0000
     41 C           1.1436    7.6573    6.7496 C.3     1  UNL1        0.0000
     42 H           0.9022    7.6707    5.6895 H       1  UNL1        0.0000
     43 H           2.0063    8.2949    6.9215 H       1  UNL1        0.0000
     44 H           0.2989    8.0794    7.2915 H       1  UNL1        0.0000
     45 C           1.3931    6.2292    7.2283 C.3     1  UNL1        0.0000
     46 H           1.8098    6.2622    8.2432 H       1  UNL1        0.0000
     47 C           0.0781    5.4497    7.2493 C.3     1  UNL1        0.0000
     48 H          -0.5716    5.8454    8.0285 H       1  UNL1        0.0000
     49 H           0.2352    4.3889    7.4436 H       1  UNL1        0.0000
     50 H          -0.4363    5.5572    6.2983 H       1  UNL1        0.0000
     51 C           2.1528    4.2858    0.3701 C.3     1  UNL1        0.0000
     52 H           3.0453    3.6657    0.2831 H       1  UNL1        0.0000
     53 H           2.3981    5.1648    0.9623 H       1  UNL1        0.0000
     54 H           1.8689    4.6219   -0.6251 H       1  UNL1        0.0000
     55 C           1.0038    3.5062    1.0071 C.3     1  UNL1        0.0000
     56 H           0.1902    4.2123    1.2230 H       1  UNL1        0.0000
     57 C           0.4818    2.4453    0.0423 C.3     1  UNL1        0.0000
     58 H          -0.0390    2.9450   -0.7740 H       1  UNL1        0.0000
     59 H          -0.2220    1.7630    0.5148 H       1  UNL1        0.0000
     60 H           1.3019    1.8778   -0.3921 H       1  UNL1        0.0000
     61 C          -1.2782    2.6462    3.2152 C.3     1  UNL1        0.0000
     62 H          -2.0502    1.9814    3.6016 H       1  UNL1        0.0000
     63 H          -1.5088    2.8660    2.1760 H       1  UNL1        0.0000
     64 H          -1.3214    3.5759    3.7757 H       1  UNL1        0.0000
     65 C           0.0815    1.9755    3.3641 C.3     1  UNL1        0.0000
     66 H           0.0786    1.0297    2.8059 H       1  UNL1        0.0000
     67 C           0.3758    1.6787    4.8332 C.3     1  UNL1        0.0000
     68 H           0.4605    2.6126    5.3942 H       1  UNL1        0.0000
     69 H           1.3070    1.1218    4.9438 H       1  UNL1        0.0000
     70 H          -0.4276    1.0932    5.2773 H       1  UNL1        0.0000
@<TRIPOS>BOND
     1    58    57    1
     2    54    51    1
     3    60    57    1
     4    57    59    1
     5    57    55    1
     6    52    51    1
     7    51    53    1
     8    51    55    1
     9    55    56    1
    10    55     3    1
    11    26    25    1
    12    24    23    1
    13    25    23   ar
    14    25    27   ar
    15    23    22   ar
    16    63    61    1
    17    28    27    1
    18    27    29   ar
    19    22     3    1
    20    22    21   ar
    21     3    65    1
    22     3     1    1
    23    66    65    1
    24     6     1    1
    25    61    65    1
    26    61    62    1
    27    61    64    1
    28    29    21   ar
    29    29    30    1
    30    65    67    1
    31    21     4    1
    32     5     1    1
    33    10     7    1
    34     1     4    1
    35     1     2    1
    36     4     7    1
    37     4    11    1
    38    39    37    1
    39    67    69    1
    40    67    70    1
    41    67    68    1
    42     7     9    1
    43     7     8    1
    44    40    37    1
    45    42    41    1
    46    37    38    1
    47    37    35    1
    48     2    35    1
    49     2    12    1
    50     2    45    1
    51    36    35    1
    52    20    19    1
    53    11    19   ar
    54    11    12   ar
    55    50    47    1
    56    35    31    1
    57    41    43    1
    58    41    45    1
    59    41    44    1
    60    19    17   ar
    61    12    13   ar
    62    45    47    1
    63    45    46    1
    64    47    49    1
    65    47    48    1
    66    31    32    1
    67    31    34    1
    68    31    33    1
    69    17    18    1
    70    17    15   ar
    71    13    15   ar
    72    13    14    1
    73    15    16    1
