@<TRIPOS>MOLECULE
CSD_code = POTLOA | q = 1 | S = 0 | Stoichiometry = C37H54CoF3O3P3SSi(1+) | MND = 5
 103 108 0 0 0
SMALL
GASTEIGER

@<TRIPOS>ATOM
      1 CO          4.7311    0.2424    2.8871 Co.oh   1  UNL1        0.0000
      2 SI          6.1389    0.3212    4.6777 Si      1  UNL1        0.0000
      3 P           6.9118   -1.1305    2.0069 P.3     1  UNL1        0.0000
      4 P           3.0924   -0.2006    4.6726 P.3     1  UNL1        0.0000
      5 P           5.1970    2.4629    2.7736 P.3     1  UNL1        0.0000
      6 S           2.8622   -0.8053    1.5311 S.3     1  UNL1        0.0000
      7 O           3.9968   -1.4824    2.1755 O.3     1  UNL1        0.0000
      8 O           3.2229    0.5756    1.2672 O.3     1  UNL1        0.0000
      9 O           1.6038   -1.0531    2.1476 O.3     1  UNL1        0.0000
     10 F           3.3308   -0.8631   -1.1032 F       1  UNL1        0.0000
     11 F           3.0656   -2.8272   -0.2376 F       1  UNL1        0.0000
     12 F           1.3683   -1.5241   -0.5194 F       1  UNL1        0.0000
     13 C           7.2611   -1.2198    4.7424 C.ar    1  UNL1        0.0000
     14 C           7.7364   -1.7211    5.9466 C.ar    1  UNL1        0.0000
     15 H           7.4646   -1.2360    6.8710 H       1  UNL1        0.0000
     16 C           8.5422   -2.8457    5.9713 C.ar    1  UNL1        0.0000
     17 H           8.9084   -3.2290    6.9111 H       1  UNL1        0.0000
     18 C           8.8639   -3.4849    4.7862 C.ar    1  UNL1        0.0000
     19 H           9.4808   -4.3705    4.7987 H       1  UNL1        0.0000
     20 C           8.3881   -2.9984    3.5801 C.ar    1  UNL1        0.0000
     21 H           8.6360   -3.5301    2.6753 H       1  UNL1        0.0000
     22 C           7.5919   -1.8583    3.5464 C.ar    1  UNL1        0.0000
     23 C           5.1870    0.4569    6.3216 C.ar    1  UNL1        0.0000
     24 C           5.8383    0.7655    7.5078 C.ar    1  UNL1        0.0000
     25 H           6.8832    1.0322    7.4864 H       1  UNL1        0.0000
     26 C           5.1545    0.7525    8.7107 C.ar    1  UNL1        0.0000
     27 H           5.6632    1.0011    9.6291 H       1  UNL1        0.0000
     28 C           3.8153    0.4070    8.7249 C.ar    1  UNL1        0.0000
     29 H           3.2756    0.3679    9.6588 H       1  UNL1        0.0000
     30 C           3.1514    0.1173    7.5434 C.ar    1  UNL1        0.0000
     31 H           2.1110   -0.1448    7.5990 H       1  UNL1        0.0000
     32 C           3.8227    0.1606    6.3271 C.ar    1  UNL1        0.0000
     33 C           7.2212    1.8873    4.4943 C.ar    1  UNL1        0.0000
     34 C           8.3993    2.0937    5.1961 C.ar    1  UNL1        0.0000
     35 H           8.7282    1.3588    5.9143 H       1  UNL1        0.0000
     36 C           9.1666    3.2222    4.9596 C.ar    1  UNL1        0.0000
     37 H          10.0819    3.3790    5.5089 H       1  UNL1        0.0000
     38 C           8.7679    4.1394    4.0018 C.ar    1  UNL1        0.0000
     39 H           9.3736    5.0101    3.8026 H       1  UNL1        0.0000
     40 C           7.5940    3.9442    3.2916 C.ar    1  UNL1        0.0000
     41 H           7.3133    4.6631    2.5376 H       1  UNL1        0.0000
     42 C           6.8109    2.8242    3.5425 C.ar    1  UNL1        0.0000
     43 C           8.4750   -0.4250    1.1973 C.3     1  UNL1        0.0000
     44 H           8.1197    0.0228    0.2619 H       1  UNL1        0.0000
     45 C           9.0568    0.6712    2.0804 C.3     1  UNL1        0.0000
     46 H           9.4007    0.2583    3.0267 H       1  UNL1        0.0000
     47 H           8.3219    1.4403    2.2917 H       1  UNL1        0.0000
     48 H           9.9068    1.1387    1.5867 H       1  UNL1        0.0000
     49 C           9.5883   -1.4133    0.8601 C.3     1  UNL1        0.0000
     50 H          10.4240   -0.8529    0.4432 H       1  UNL1        0.0000
     51 H           9.2975   -2.1478    0.1153 H       1  UNL1        0.0000
     52 H           9.9474   -1.9192    1.7524 H       1  UNL1        0.0000
     53 C           6.6896   -2.6536    0.9334 C.3     1  UNL1        0.0000
     54 H           7.6862   -3.0945    0.8341 H       1  UNL1        0.0000
     55 C           6.2183   -2.2081   -0.4478 C.3     1  UNL1        0.0000
     56 H           5.8730   -3.0618   -1.0266 H       1  UNL1        0.0000
     57 H           7.0204   -1.7244   -1.0024 H       1  UNL1        0.0000
     58 H           5.3978   -1.5017   -0.3598 H       1  UNL1        0.0000
     59 C           5.7936   -3.7267    1.5418 C.3     1  UNL1        0.0000
     60 H           4.7707   -3.3850    1.6443 H       1  UNL1        0.0000
     61 H           6.1579   -4.0262    2.5231 H       1  UNL1        0.0000
     62 H           5.7966   -4.6022    0.8947 H       1  UNL1        0.0000
     63 C           2.8200   -2.0492    4.8219 C.3     1  UNL1        0.0000
     64 H           2.4030   -2.3437    3.8544 H       1  UNL1        0.0000
     65 C           1.8420   -2.4619    5.9177 C.3     1  UNL1        0.0000
     66 H           1.6794   -3.5361    5.8466 H       1  UNL1        0.0000
     67 H           0.8757   -1.9792    5.8048 H       1  UNL1        0.0000
     68 H           2.2459   -2.2541    6.9056 H       1  UNL1        0.0000
     69 C           4.1625   -2.7448    5.0251 C.3     1  UNL1        0.0000
     70 H           4.6288   -2.4325    5.9590 H       1  UNL1        0.0000
     71 H           4.8361   -2.5238    4.2004 H       1  UNL1        0.0000
     72 H           4.0158   -3.8223    5.0622 H       1  UNL1        0.0000
     73 C           1.3325    0.4963    4.5615 C.3     1  UNL1        0.0000
     74 H           0.7873   -0.3358    4.1039 H       1  UNL1        0.0000
     75 C           0.6421    0.9075    5.8591 C.3     1  UNL1        0.0000
     76 H           1.2256    1.6424    6.4097 H       1  UNL1        0.0000
     77 H           0.4187    0.0636    6.5043 H       1  UNL1        0.0000
     78 H          -0.3094    1.3684    5.5966 H       1  UNL1        0.0000
     79 C           1.2597    1.6816    3.5970 C.3     1  UNL1        0.0000
     80 H           0.2440    1.7691    3.2168 H       1  UNL1        0.0000
     81 H           1.9158    1.5473    2.7420 H       1  UNL1        0.0000
     82 H           1.5054    2.6071    4.1108 H       1  UNL1        0.0000
     83 C           4.1223    3.7273    3.6360 C.3     1  UNL1        0.0000
     84 H           3.1458    3.6409    3.1505 H       1  UNL1        0.0000
     85 C           3.9874    3.3758    5.1125 C.3     1  UNL1        0.0000
     86 H           4.9575    3.4026    5.6066 H       1  UNL1        0.0000
     87 H           3.5669    2.3804    5.2380 H       1  UNL1        0.0000
     88 H           3.3365    4.0930    5.6094 H       1  UNL1        0.0000
     89 C           4.6191    5.1646    3.4972 C.3     1  UNL1        0.0000
     90 H           3.8801    5.8330    3.9357 H       1  UNL1        0.0000
     91 H           4.7567    5.4619    2.4619 H       1  UNL1        0.0000
     92 H           5.5531    5.3053    4.0353 H       1  UNL1        0.0000
     93 C           5.3033    3.1307    1.0326 C.3     1  UNL1        0.0000
     94 H           5.8923    4.0546    1.0901 H       1  UNL1        0.0000
     95 C           3.9336    3.4416    0.4376 C.3     1  UNL1        0.0000
     96 H           4.0573    3.7556   -0.5973 H       1  UNL1        0.0000
     97 H           3.4249    4.2413    0.9694 H       1  UNL1        0.0000
     98 H           3.3092    2.5535    0.4488 H       1  UNL1        0.0000
     99 C           6.0533    2.1282    0.1639 C.3     1  UNL1        0.0000
    100 H           5.5234    1.1759    0.1556 H       1  UNL1        0.0000
    101 H           7.0636    1.9799    0.5376 H       1  UNL1        0.0000
    102 H           6.1153    2.4904   -0.8605 H       1  UNL1        0.0000
    103 C           2.6519   -1.5607   -0.1873 C.3     1  UNL1        0.0000
@<TRIPOS>BOND
     1    10   103    1
     2    56    55    1
     3    57    55    1
     4   102    99    1
     5    96    95    1
     6    12   103    1
     7    55    58    1
     8    55    53    1
     9    11   103    1
    10   103     6    1
    11    51    49    1
    12   100    99    1
    13    99   101    1
    14    99    93    1
    15    44    43    1
    16    95    98    1
    17    95    97    1
    18    95    93    1
    19    50    49    1
    20    54    53    1
    21    49    43    1
    22    49    52    1
    23    62    59    1
    24    53    59    1
    25    53     3    1
    26    93    94    1
    27    93     5    1
    28    43     3    1
    29    43    45    1
    30     8     6    1
    31     8     1    1
    32     6     9    1
    33     6     7    1
    34    59    60    1
    35    59    61    1
    36    48    45    1
    37     3    22    1
    38    45    47    1
    39    45    46    1
    40     7     1    1
    41    91    89    1
    42    41    40    1
    43    21    20    1
    44    81    79    1
    45     5     1    1
    46     5    42    1
    47     5    83    1
    48     1     4    1
    49     1     2    1
    50    84    83    1
    51    80    79    1
    52    40    42   ar
    53    40    38   ar
    54    89    83    1
    55    89    90    1
    56    89    92    1
    57    42    33   ar
    58    22    20   ar
    59    22    13   ar
    60    20    18   ar
    61    79    82    1
    62    79    73    1
    63    83    85    1
    64    39    38    1
    65    64    63    1
    66    38    36   ar
    67    74    73    1
    68    71    69    1
    69    33     2    1
    70    33    34   ar
    71    73     4    1
    72    73    75    1
    73     4    63    1
    74     4    32    1
    75     2    13    1
    76     2    23    1
    77    13    14   ar
    78    18    19    1
    79    18    16   ar
    80    63    69    1
    81    63    65    1
    82    36    34   ar
    83    36    37    1
    84    69    72    1
    85    69    70    1
    86    85    87    1
    87    85    86    1
    88    85    88    1
    89    34    35    1
    90    78    75    1
    91    67    65    1
    92    66    65    1
    93    75    76    1
    94    75    77    1
    95    65    68    1
    96    14    16   ar
    97    14    15    1
    98    16    17    1
    99    23    32   ar
   100    23    24   ar
   101    32    30   ar
   102    25    24    1
   103    24    26   ar
   104    30    31    1
   105    30    28   ar
   106    26    28   ar
   107    26    27    1
   108    28    29    1
