@<TRIPOS>MOLECULE
CSD_code = TADZIK | q = 0 | S = 0 | Stoichiometry = C39H49CoN2P4Si | MND = 5
 96 103 0 0 0
SMALL
GASTEIGER

@<TRIPOS>ATOM
      1 CO          6.6461   14.6735    5.0234 Co.oh   1  UNL1        0.0000
      2 SI          4.5555   14.9562    5.8446 Si      1  UNL1        0.0000
      3 P           8.6550   13.9519    4.4541 P.3     1  UNL1        0.0000
      4 P           6.8274   16.7721    3.9691 P.3     1  UNL1        0.0000
      5 P           5.4080   13.2154    3.8365 P.3     1  UNL1        0.0000
      6 P           7.1489   14.8898    7.2419 P.3     1  UNL1        0.0000
      7 N           4.5416   15.0286    7.6226 N.pl3   1  UNL1        0.0000
      8 N           3.7186   13.3980    5.8856 N.pl3   1  UNL1        0.0000
      9 C           3.5533   12.9581    7.1841 C.ar    1  UNL1        0.0000
     10 C           3.0094   11.7478    7.5689 C.ar    1  UNL1        0.0000
     11 H           2.6454   11.0527    6.8248 H       1  UNL1        0.0000
     12 C           2.9369   11.4281    8.9187 C.ar    1  UNL1        0.0000
     13 H           2.5114   10.4816    9.2199 H       1  UNL1        0.0000
     14 C           3.4063   12.3112    9.8706 C.ar    1  UNL1        0.0000
     15 H           3.3489   12.0574   10.9194 H       1  UNL1        0.0000
     16 C           3.9571   13.5284    9.4935 C.ar    1  UNL1        0.0000
     17 H           4.3286   14.2073   10.2485 H       1  UNL1        0.0000
     18 C           4.0400   13.8590    8.1531 C.ar    1  UNL1        0.0000
     19 C           3.1167   16.2169    5.5049 C.3     1  UNL1        0.0000
     20 H           3.3170   17.1614    5.9980 H       1  UNL1        0.0000
     21 H           2.2017   15.8134    5.9265 H       1  UNL1        0.0000
     22 H           2.9564   16.4054    4.4517 H       1  UNL1        0.0000
     23 C           4.0178   12.4864    4.8344 C.3     1  UNL1        0.0000
     24 H           3.1618   12.2880    4.1704 H       1  UNL1        0.0000
     25 H           4.3519   11.5154    5.2283 H       1  UNL1        0.0000
     26 C           5.8252   11.7020    2.8734 C.ar    1  UNL1        0.0000
     27 C           5.5803   11.5193    1.5168 C.ar    1  UNL1        0.0000
     28 H           5.0986   12.2963    0.9420 H       1  UNL1        0.0000
     29 C           5.9417   10.3365    0.8945 C.ar    1  UNL1        0.0000
     30 H           5.7416   10.2065   -0.1595 H       1  UNL1        0.0000
     31 C           6.5516    9.3220    1.6119 C.ar    1  UNL1        0.0000
     32 H           6.8335    8.4026    1.1203 H       1  UNL1        0.0000
     33 C           6.7938    9.4905    2.9660 C.ar    1  UNL1        0.0000
     34 H           7.2632    8.7004    3.5349 H       1  UNL1        0.0000
     35 C           6.4337   10.6704    3.5869 C.ar    1  UNL1        0.0000
     36 H           6.6183   10.7992    4.6453 H       1  UNL1        0.0000
     37 C           4.5519   14.1923    2.5669 C.ar    1  UNL1        0.0000
     38 C           3.2079   14.5378    2.6093 C.ar    1  UNL1        0.0000
     39 H           2.5837   14.1979    3.4204 H       1  UNL1        0.0000
     40 C           2.6654   15.3373    1.6165 C.ar    1  UNL1        0.0000
     41 H           1.6185   15.6025    1.6565 H       1  UNL1        0.0000
     42 C           3.4536   15.7986    0.5759 C.ar    1  UNL1        0.0000
     43 H           3.0233   16.4183   -0.1972 H       1  UNL1        0.0000
     44 C           4.8002   15.4692    0.5343 C.ar    1  UNL1        0.0000
     45 H           5.4198   15.8319   -0.2742 H       1  UNL1        0.0000
     46 C           5.3447   14.6801    1.5287 C.ar    1  UNL1        0.0000
     47 H           6.3955   14.4228    1.5164 H       1  UNL1        0.0000
     48 C           8.5980   15.6184    8.0882 C.ar    1  UNL1        0.0000
     49 C           9.7384   14.8525    8.3259 C.ar    1  UNL1        0.0000
     50 H           9.7345   13.8006    8.0735 H       1  UNL1        0.0000
     51 C          10.8623   15.4185    8.8971 C.ar    1  UNL1        0.0000
     52 H          11.7360   14.8100    9.0825 H       1  UNL1        0.0000
     53 C          10.8701   16.7633    9.2319 C.ar    1  UNL1        0.0000
     54 H          11.7481   17.2057    9.6789 H       1  UNL1        0.0000
     55 C           9.7461   17.5361    8.9917 C.ar    1  UNL1        0.0000
     56 H           9.7466   18.5849    9.2525 H       1  UNL1        0.0000
     57 C           8.6214   16.9702    8.4190 C.ar    1  UNL1        0.0000
     58 H           7.7493   17.5807    8.2364 H       1  UNL1        0.0000
     59 C           7.0677   13.2786    8.0951 C.ar    1  UNL1        0.0000
     60 C           6.6278   12.1776    7.3756 C.ar    1  UNL1        0.0000
     61 H           6.4412   12.3047    6.3144 H       1  UNL1        0.0000
     62 C           6.4254   10.9607    7.9981 C.ar    1  UNL1        0.0000
     63 H           6.0690   10.1110    7.4329 H       1  UNL1        0.0000
     64 C           6.6692   10.8369    9.3546 C.ar    1  UNL1        0.0000
     65 H           6.5042    9.8916    9.8503 H       1  UNL1        0.0000
     66 C           7.1216   11.9282   10.0791 C.ar    1  UNL1        0.0000
     67 H           7.3113   11.8302   11.1384 H       1  UNL1        0.0000
     68 C           7.3187   13.1463    9.4574 C.ar    1  UNL1        0.0000
     69 H           7.6641   13.9969   10.0303 H       1  UNL1        0.0000
     70 C           5.6994   15.6562    8.1536 C.3     1  UNL1        0.0000
     71 H           5.8134   15.5267    9.2333 H       1  UNL1        0.0000
     72 H           5.6503   16.7249    7.9164 H       1  UNL1        0.0000
     73 C           8.9879   13.5328    2.6931 C.3     1  UNL1        0.0000
     74 H           8.8453   14.4116    2.0688 H       1  UNL1        0.0000
     75 H           8.2872   12.7607    2.3769 H       1  UNL1        0.0000
     76 H          10.0072   13.1656    2.5750 H       1  UNL1        0.0000
     77 C          10.1107   15.0250    4.7963 C.3     1  UNL1        0.0000
     78 H          10.2016   15.1660    5.8719 H       1  UNL1        0.0000
     79 H           9.9731   15.9996    4.3345 H       1  UNL1        0.0000
     80 H          11.0210   14.5661    4.4111 H       1  UNL1        0.0000
     81 C           9.2898   12.3970    5.2050 C.3     1  UNL1        0.0000
     82 H           9.1546   12.4247    6.2841 H       1  UNL1        0.0000
     83 H          10.3468   12.2722    4.9710 H       1  UNL1        0.0000
     84 H           8.7328   11.5529    4.8053 H       1  UNL1        0.0000
     85 C           7.8671   17.1502    2.4877 C.3     1  UNL1        0.0000
     86 H           7.3937   16.7148    1.6105 H       1  UNL1        0.0000
     87 H           8.8629   16.7281    2.5958 H       1  UNL1        0.0000
     88 H           7.9480   18.2282    2.3519 H       1  UNL1        0.0000
     89 C           7.5645   17.9710    5.1539 C.3     1  UNL1        0.0000
     90 H           6.8771   18.0666    5.9921 H       1  UNL1        0.0000
     91 H           7.7111   18.9455    4.6887 H       1  UNL1        0.0000
     92 H           8.5124   17.5923    5.5296 H       1  UNL1        0.0000
     93 C           5.3723   17.7823    3.4763 C.3     1  UNL1        0.0000
     94 H           4.7917   17.2500    2.7274 H       1  UNL1        0.0000
     95 H           5.6968   18.7403    3.0712 H       1  UNL1        0.0000
     96 H           4.7484   17.9466    4.3488 H       1  UNL1        0.0000
@<TRIPOS>BOND
     1    45    44    1
     2    43    42    1
     3    30    29    1
     4    44    42   ar
     5    44    46   ar
     6    42    40   ar
     7    29    27   ar
     8    29    31   ar
     9    28    27    1
    10    32    31    1
    11    47    46    1
    12    27    26   ar
    13    46    37   ar
    14    86    85    1
    15    31    33   ar
    16    40    41    1
    17    40    38   ar
    18    74    73    1
    19    88    85    1
    20    75    73    1
    21    85    87    1
    22    85     4    1
    23    37    38   ar
    24    37     5    1
    25    76    73    1
    26    38    39    1
    27    73     3    1
    28    94    93    1
    29    26    35   ar
    30    26     5    1
    31    33    34    1
    32    33    35   ar
    33    95    93    1
    34    93     4    1
    35    93    96    1
    36    35    36    1
    37     5    23    1
    38     5     1    1
    39     4     1    1
    40     4    89    1
    41    24    23    1
    42    79    77    1
    43    80    77    1
    44    22    19    1
    45     3    77    1
    46     3     1    1
    47     3    81    1
    48    91    89    1
    49    77    78    1
    50    84    81    1
    51    23    25    1
    52    23     8    1
    53    83    81    1
    54     1     2    1
    55     1     6    1
    56    89    92    1
    57    89    90    1
    58    81    82    1
    59    19     2    1
    60    19    21    1
    61    19    20    1
    62     2     8    1
    63     2     7    1
    64     8     9    1
    65    61    60    1
    66    11    10    1
    67     9    10   ar
    68     9    18   ar
    69     6    48    1
    70     6    59    1
    71     6    70    1
    72    60    62   ar
    73    60    59   ar
    74    63    62    1
    75    10    12   ar
    76     7    18    1
    77     7    70    1
    78    72    70    1
    79    62    64   ar
    80    50    49    1
    81    48    49   ar
    82    48    57   ar
    83    59    68   ar
    84    18    16   ar
    85    70    71    1
    86    58    57    1
    87    49    51   ar
    88    57    55   ar
    89    51    52    1
    90    51    53   ar
    91    12    13    1
    92    12    14   ar
    93    55    53   ar
    94    55    56    1
    95    53    54    1
    96    64    65    1
    97    64    66   ar
    98    68    69    1
    99    68    66   ar
   100    16    14   ar
   101    16    17    1
   102    14    15    1
   103    66    67    1
