@<TRIPOS>MOLECULE
CSD_code = TILBUO | q = 0 | S = 0 | Stoichiometry = C26H37CoO2P2Si | MND = 5
 69 72 0 0 0
SMALL
GASTEIGER

@<TRIPOS>ATOM
      1 CO          9.8594    3.0639   12.6131 Co.oh   1  UNL1        0.0000
      2 P          11.7032    4.2689   13.4074 P.3     1  UNL1        0.0000
      3 P           8.7945    3.9010   10.8055 P.3     1  UNL1        0.0000
      4 SI          8.6687    4.6463   13.6985 Si      1  UNL1        0.0000
      5 H           7.3825    4.4947   14.4481 H       1  UNL1        0.0000
      6 O           8.8109    1.3264   14.7104 O.3     1  UNL1        0.0000
      7 O          11.0922    1.0440   10.9364 O.3     1  UNL1        0.0000
      8 C           9.2207    2.0145   13.8824 C.3     1  UNL1        0.0000
      9 C          10.6527    1.8510   11.6318 C.3     1  UNL1        0.0000
     10 C           9.8129    5.4195   15.0066 C.ar    1  UNL1        0.0000
     11 C           9.3331    6.1386   16.0875 C.ar    1  UNL1        0.0000
     12 H           8.2739    6.3379   16.1582 H       1  UNL1        0.0000
     13 C          10.1893    6.5846   17.0786 C.ar    1  UNL1        0.0000
     14 H           9.8057    7.1450   17.9192 H       1  UNL1        0.0000
     15 C          11.5405    6.2901   17.0017 C.ar    1  UNL1        0.0000
     16 H          12.2112    6.6141   17.7849 H       1  UNL1        0.0000
     17 C          12.0370    5.5748   15.9257 C.ar    1  UNL1        0.0000
     18 H          13.0909    5.3394   15.8996 H       1  UNL1        0.0000
     19 C          11.1782    5.1482   14.9187 C.ar    1  UNL1        0.0000
     20 C           8.1881    5.9832   12.4202 C.ar    1  UNL1        0.0000
     21 C           7.7621    7.2553   12.7598 C.ar    1  UNL1        0.0000
     22 H           7.7466    7.5461   13.7998 H       1  UNL1        0.0000
     23 C           7.3697    8.1518   11.7804 C.ar    1  UNL1        0.0000
     24 H           7.0518    9.1484   12.0513 H       1  UNL1        0.0000
     25 C           7.3761    7.7661   10.4503 C.ar    1  UNL1        0.0000
     26 H           7.0563    8.4581    9.6841 H       1  UNL1        0.0000
     27 C           7.7895    6.4932   10.0956 C.ar    1  UNL1        0.0000
     28 H           7.7731    6.2051    9.0565 H       1  UNL1        0.0000
     29 C           8.2109    5.6053   11.0765 C.ar    1  UNL1        0.0000
     30 C          13.1217    3.2236   14.0190 C.3     1  UNL1        0.0000
     31 H          13.8037    3.8674   14.5849 H       1  UNL1        0.0000
     32 C          12.5666    2.1555   14.9544 C.3     1  UNL1        0.0000
     33 H          11.9954    2.6103   15.7635 H       1  UNL1        0.0000
     34 H          13.3753    1.5684   15.3874 H       1  UNL1        0.0000
     35 H          11.9076    1.4814   14.4079 H       1  UNL1        0.0000
     36 C          13.8792    2.5947   12.8551 C.3     1  UNL1        0.0000
     37 H          13.2072    1.9952   12.2449 H       1  UNL1        0.0000
     38 H          14.6666    1.9423   13.2304 H       1  UNL1        0.0000
     39 H          14.3372    3.3519   12.2214 H       1  UNL1        0.0000
     40 C          12.5865    5.6501   12.4906 C.3     1  UNL1        0.0000
     41 H          12.9256    5.1890   11.5525 H       1  UNL1        0.0000
     42 C          13.7897    6.2745   13.1876 C.3     1  UNL1        0.0000
     43 H          13.4916    6.7504   14.1188 H       1  UNL1        0.0000
     44 H          14.2117    7.0430   12.5402 H       1  UNL1        0.0000
     45 H          14.5717    5.5474   13.3915 H       1  UNL1        0.0000
     46 C          11.5571    6.7282   12.1661 C.3     1  UNL1        0.0000
     47 H          10.6823    6.2972   11.6825 H       1  UNL1        0.0000
     48 H          11.9831    7.4777   11.5005 H       1  UNL1        0.0000
     49 H          11.2273    7.2249   13.0778 H       1  UNL1        0.0000
     50 C           7.1713    3.0572   10.4459 C.3     1  UNL1        0.0000
     51 H           6.7393    3.5708    9.5768 H       1  UNL1        0.0000
     52 C           6.2146    3.2040   11.6217 C.3     1  UNL1        0.0000
     53 H           6.6170    2.7038   12.5008 H       1  UNL1        0.0000
     54 H           5.2548    2.7506   11.3782 H       1  UNL1        0.0000
     55 H           6.0494    4.2516   11.8668 H       1  UNL1        0.0000
     56 C           7.4080    1.5828   10.1383 C.3     1  UNL1        0.0000
     57 H           8.0597    1.4455    9.2778 H       1  UNL1        0.0000
     58 H           6.4622    1.0826    9.9345 H       1  UNL1        0.0000
     59 H           7.8715    1.0999   10.9991 H       1  UNL1        0.0000
     60 C           9.6464    3.8093    9.1348 C.3     1  UNL1        0.0000
     61 H          10.0512    2.7859    9.1456 H       1  UNL1        0.0000
     62 C           8.8420    3.9645    7.8461 C.3     1  UNL1        0.0000
     63 H           7.9785    3.3058    7.8145 H       1  UNL1        0.0000
     64 H           9.4865    3.7055    7.0059 H       1  UNL1        0.0000
     65 H           8.5086    4.9870    7.6940 H       1  UNL1        0.0000
     66 C          10.8273    4.7747    9.1566 C.3     1  UNL1        0.0000
     67 H          10.4835    5.8081    9.1700 H       1  UNL1        0.0000
     68 H          11.4570    4.6315    8.2795 H       1  UNL1        0.0000
     69 H          11.4303    4.5962   10.0459 H       1  UNL1        0.0000
@<TRIPOS>BOND
     1    64    62    1
     2    65    62    1
     3    63    62    1
     4    62    60    1
     5    68    66    1
     6    28    27    1
     7    60    61    1
     8    60    66    1
     9    60     3    1
    10    66    67    1
    11    66    69    1
    12    57    56    1
    13    51    50    1
    14    26    25    1
    15    58    56    1
    16    27    25   ar
    17    27    29   ar
    18    56    50    1
    19    56    59    1
    20    50     3    1
    21    50    52    1
    22    25    23   ar
    23     3    29    1
    24     3     1    1
    25     7     9    1
    26    29    20   ar
    27    54    52    1
    28    48    46    1
    29    41    40    1
    30    52    55    1
    31    52    53    1
    32     9     1    1
    33    47    46    1
    34    23    24    1
    35    23    21   ar
    36    46    40    1
    37    46    49    1
    38    39    36    1
    39    37    36    1
    40    20    21   ar
    41    20     4    1
    42    40    42    1
    43    40     2    1
    44    44    42    1
    45     1     2    1
    46     1     4    1
    47     1     8    1
    48    21    22    1
    49    36    38    1
    50    36    30    1
    51    42    45    1
    52    42    43    1
    53     2    30    1
    54     2    19    1
    55     4     5    1
    56     4    10    1
    57     8     6    1
    58    30    31    1
    59    30    32    1
    60    35    32    1
    61    19    10   ar
    62    19    17   ar
    63    32    34    1
    64    32    33    1
    65    10    11   ar
    66    18    17    1
    67    17    15   ar
    68    11    12    1
    69    11    13   ar
    70    15    13   ar
    71    15    16    1
    72    13    14    1
